<?xml version="1.0" encoding="UTF-8"?>
<net version="1.9">
    <location netOffset="0.00,0.00" convBoundary="0.00,0.00,500.00,500.00" origBoundary="0.00,0.00,500.00,500.00"/>
    <edge id="north_center" from="north" to="center" priority="1" numLanes="1" speed="13.90"/>
    <edge id="center_south" from="center" to="south" priority="1" numLanes="1" speed="13.90"/>
    <edge id="west_center" from="west" to="center" priority="1" numLanes="1" speed="13.90"/>
    <edge id="center_east" from="center" to="east" priority="1" numLanes="1" speed="13.90"/>
</net>
