<?xml version="1.0" encoding="UTF-8"?>
<routes>
    <vType id="car" accel="1.0" decel="4.5" sigma="0.5" length="5" maxSpeed="20"/>
    <route id="north_to_east" edges="north_center center_east"/>
    <route id="west_to_south" edges="west_center center_south"/>
    <vehicle id="veh0" type="car" route="north_to_east" depart="0"/>
    <vehicle id="veh1" type="car" route="west_to_south" depart="4"/>
</routes>
