<?xml version="1.0" encoding="UTF-8"?>

<!-- generated on 2026-04-29 19:44:57.144961 by Eclipse SUMO randomTrips.py v1.26.0
<configuration>
    <net-file value="../simulation/bengaluru_cbd/bengaluru_cbd.net.xml"/>
    <output-trip-file value="../simulation/bengaluru_cbd/bengaluru_cbd_trips.trips.xml"/>
    <route-file value="../simulation/bengaluru_cbd/bengaluru_cbd_routes.rou.xml"/>
    <prefix value="cbd"/>
    <vehicle-class value="passenger"/>
    <random-departpos value="True"/>
    <random-arrivalpos value="True"/>
    <fringe-factor value="max"/>
    <random value="True"/>
    <remove-loops value="True"/>
    <insertion-rate value="900.0"/>
</configuration>
-->

<!-- generated on 2026-04-29T19:44:57.124875+05:30 by Eclipse SUMO duarouter 1.26.0
<duarouterConfiguration xmlns:xsi="http://www.w3.org/2001/XMLSchema-instance" xsi:noNamespaceSchemaLocation="http://sumo.dlr.de/xsd/duarouterConfiguration.xsd">

    <input>
        <net-file value="../simulation/bengaluru_cbd/bengaluru_cbd.net.xml"/>
        <route-files value="../simulation/bengaluru_cbd/bengaluru_cbd_trips.trips.xml"/>
    </input>

    <output>
        <output-file value="../simulation/bengaluru_cbd/bengaluru_cbd_routes.rou.xml"/>
        <alternatives-output value="NUL"/>
    </output>

    <processing>
        <remove-loops value="true"/>
    </processing>

    <time>
        <begin value="0.0"/>
        <end value="3600.0"/>
    </time>

    <report>
        <no-warnings value="true"/>
        <ignore-errors value="true"/>
        <no-step-log value="true"/>
    </report>

</duarouterConfiguration>
-->

<routes xmlns:xsi="http://www.w3.org/2001/XMLSchema-instance" xsi:noNamespaceSchemaLocation="http://sumo.dlr.de/xsd/routes_file.xsd">
    <vType id="cbd_passenger" vClass="passenger"/>
    <vehicle id="cbd0" type="cbd_passenger" depart="0.00" departPos="107.29" arrivalPos="246.14">
        <route edges="52242930#0 52242930#2 779282855#0 779282855#1 779282855#2 736395475#0 736395475#1 38542534#1 1267185541#0 763048421#1 763048421#2 -763048420#7 -763048420#1 1109946345#0 1249434050#0 1249434050#3 362206701#1 362206701#5 362206701#6 1148408386#1 363452629#0 360861358#0 360861358#6 503401205#1 589685544 52063523#0 52063523#2 52063523#4 554901329 1106310175 362900185"/>
    </vehicle>
    <vehicle id="cbd1" type="cbd_passenger" depart="4.00" departPos="45.71" arrivalPos="54.24">
        <route edges="-1312448642 52242930#2 779282855#0 779282855#1 779282855#2 736395475#0 736395475#1 38542534#1 1267185541#0 763048421#1 763048421#2 -763048420#7 -763048420#1 1109946345#0 1249434050#0 1249434050#3 362206701#1 362206701#5 362206701#6 1148408386#1 363452629#0 360861358#0 360861358#6 52246044#1 52246044#5 52246044#9"/>
    </vehicle>
    <vehicle id="cbd2" type="cbd_passenger" depart="8.00" departPos="34.19" arrivalPos="62.41">
        <route edges="1101945530#0 1101945530#1 1101945530#2 107215083#0 107215083#1 1232642395 359476589 359476587#0 760700372#0 503401204#0 503401204#4 1148408386#1 363452629#0 360861353#1 1337983630 458439815#0 458439815#1 458439815#2"/>
    </vehicle>
    <vehicle id="cbd3" type="cbd_passenger" depart="12.00" departPos="92.91" arrivalPos="46.20">
        <route edges="-1312448642 52242930#2 779282855#0 779282855#1 779282855#2 736395475#0 736395475#1 38542534#1 1267185541#0 763048421#1 763048421#2 -763048420#7 -763048420#1 1109946345#0 1249434050#0 1249434050#3 362206701#1 362206701#5 362206701#6 1148408386#1 363452629#0 360861353#1 1337983630 -695042720#2 316536547#1 1184938064"/>
    </vehicle>
    <vehicle id="cbd4" type="cbd_passenger" depart="16.00" departPos="19.81" arrivalPos="10.59">
        <route edges="160558221#0 160558221#1 160558221#5 160558221#7 452860327#0 452860327#1 1148406429 736395475#0 736395475#1 38542534#1 1267185541#0 763048421#1 763048421#2 -763048420#7 -763048420#1 1109946345#0 1249434050#0 1249434050#3 362206700#11 362206700#12 1109946346#0 553253466#0 553253466#1 553253466#2 1312841562#1 1312841563 363477540#0 363477540#1 1182221973#3"/>
    </vehicle>
    <vehicle id="cbd5" type="cbd_passenger" depart="20.00" departPos="57.89" arrivalPos="15.64">
        <route edges="-1312448642 52242930#2 779282855#0 779282855#1 779282855#2 736395475#0 736395475#1 38542534#1 1267185541#0 763048421#1 763048421#2 -763048420#7 1096187527#0"/>
    </vehicle>
    <vehicle id="cbd6" type="cbd_passenger" depart="24.00" departPos="45.97" arrivalPos="277.31">
        <route edges="-52060801 1066895467#8 36913434#6 1110191850#0 26283603 1205171802#0 1312434983#0 1312434983#1 1312434983#2 1312434983#3 107215083#0 107215083#1 1232642395 359476589 359476587#0 508711055#0 52063523#2 52063523#4 554901329 1106310175 362900185"/>
    </vehicle>
    <vehicle id="cbd7" type="cbd_passenger" depart="28.00" departPos="48.85" arrivalPos="36.11">
        <route edges="1096795626 36913438#1 36913438#2 -316536545#1 1152469184"/>
    </vehicle>
    <vehicle id="cbd8" type="cbd_passenger" depart="32.00" departPos="96.84" arrivalPos="2.65">
        <route edges="36883288#0 36883288#1 736395474 736395475#1 38542534#1 1267185541#0 763048421#1 763048421#2 -763048420#7 -763048420#1 1109946345#0 1249434050#0 1249434050#3 362206701#1 362206701#5 362206701#6 1148408386#1 363452629#0 360861353#1 1337983630 -695042720#2 316536547#1 1184938064"/>
    </vehicle>
    <vehicle id="cbd9" type="cbd_passenger" depart="36.00" departPos="13.34" arrivalPos="29.35">
        <route edges="1238638853 1148155466#0 26283603 1205171802#0 1312434983#0 1312434983#1 1312434983#2 1312434983#3 1373661996 46728567#0 46728567#5 46728567#7 208701339#0 1308629005"/>
    </vehicle>
    <vehicle id="cbd10" type="cbd_passenger" depart="40.00" departPos="210.60" arrivalPos="146.93">
        <route edges="1091198034#0 1091198032#3 1091198032#4 1091198032#5 1091198030#0 -991536561#1 991536562#0 991536562#1 362206701#1 362206701#5 1312433830#0 1312433830#1 152051153#1 37110390 1321561533 -172920274#2"/>
    </vehicle>
    <vehicle id="cbd11" type="cbd_passenger" depart="44.00" departPos="117.16" arrivalPos="60.09">
        <route edges="-23029715#2 46728567#5 46728567#7 46728567#9 1066895467#0 1066895467#2 1066895467#3 1066895467#8 36913434#6 1110191850#0 26283603 1205171802#0 1312434983#0 1312434983#1 1312434983#2 1312434983#3 107215083#0 107215083#1 1232642395 359476589 359476587#0 760700372#0 503401204#0 503401204#4 1148408386#1 363452629#0 360861353#1 1337983630 458439815#0 -316536545#2 -316536545#1 1152469184"/>
    </vehicle>
    <vehicle id="cbd12" type="cbd_passenger" depart="48.00" departPos="30.57" arrivalPos="45.17">
        <route edges="391160974#0 36882311#0 36882311#7 1091198032#3 1091198032#4 1091198032#5 1091198030#0 -991536561#1 991536562#0 991536562#1 362206701#1 362206701#5 362206701#6 1148408386#1 363452629#0 360861358#0 360861358#6 503401205#1 589685544 52063523#0 52063523#2 52063523#4 506310567#1 730432812#0 730432812#4 730432812#5 1373661996 46728567#0 46728567#5 46728567#7 46728567#9 -45308260#8 -720099000#1"/>
    </vehicle>
    <vehicle id="cbd13" type="cbd_passenger" depart="52.00" departPos="24.43" arrivalPos="4.09">
        <route edges="-1152469184 316536545#1 -36913438#2 -36913438#1 -36913438#0 1210473310#0 1343714137#1 1343714137#3 1148194090#1 362206700#0 362206700#1 362206700#4 362206700#9 362206700#11 362206700#12 1109946346#0 553253466#0 553253466#1 553253466#2 1312841562#1 1312841563 363477540#0 363477540#1 1182221973#3"/>
    </vehicle>
    <vehicle id="cbd14" type="cbd_passenger" depart="56.00" departPos="16.91" arrivalPos="3.91">
        <route edges="1101945530#0 1101945530#1 1101945530#2 107215083#0 107215083#1 1232642395 359476589 359476587#0 760700372#0 503401204#0 503401204#4 152051153#0 152051153#1 152051153#12 152051153#14 152051153#17 130355529#0 130355529#1 1221922602 161416660#0 161416660#2 161416660#3"/>
    </vehicle>
    <vehicle id="cbd15" type="cbd_passenger" depart="60.00" departPos="27.29" arrivalPos="53.02">
        <route edges="-1224538514 1066895467#3 1066895467#8 36913434#6 1110191850#0 26283603 1205171802#0 1312434983#0 1312434983#1 1312434983#2 1312434983#3 107215083#0 107215083#1 1232642395 359476589 359476587#0 760700372#0 503401204#0 503401204#4 362206700#0 362206700#1 362206700#4 362206700#9 362206700#11 362206700#12 1109946346#0 553253466#0 553253466#1 553253466#2 1312841562#1 1312841563 358318632#1"/>
    </vehicle>
    <vehicle id="cbd16" type="cbd_passenger" depart="64.00" departPos="102.89" arrivalPos="79.25">
        <route edges="36883288#0 36883288#1 736395474 736395475#1 38542534#1 1267185541#0 763048421#1 763048421#2 -763048420#7 -763048420#1 1109946345#0 1249434050#0 1249434050#3 362206701#1 362206701#5 362206701#6 1148408386#1 363452629#0 360861358#0 360861358#6 503401205#1 589685544 52063523#0 52063523#2 52063523#4 506310567#1 730432812#0 730432812#4 730432812#5 1373661996 46728567#0 46728567#5 46728567#7 46728567#9 23029705#0"/>
    </vehicle>
    <vehicle id="cbd17" type="cbd_passenger" depart="68.00" departPos="38.22" arrivalPos="164.16">
        <route edges="-1152469184 316536545#1 -36913438#2 -36913438#1 -36913438#0 1210473310#0 26808007#0 503401206#0 503401205#1 589685544 52063523#0 52063523#2 52063523#4 506310567#1 730432812#0 730432812#4 730432812#5 1373661996 46728567#0 46728567#5 46728567#7 46728567#9 23029705#0"/>
    </vehicle>
    <vehicle id="cbd18" type="cbd_passenger" depart="72.00" departPos="21.71" arrivalPos="264.37">
        <route edges="1101945530#0 1101945530#1 1101945530#2 107215083#0 107215083#1 1232642395 359476589 359476587#0 760700372#0 503401204#0 503401204#4 1148408386#1 363452629#0 360861358#0 360861358#6 52246044#1 52246044#5 36913437#0"/>
    </vehicle>
    <vehicle id="cbd19" type="cbd_passenger" depart="76.00" departPos="7.17" arrivalPos="8.01">
        <route edges="36913438#0 -36913438#0 1210473310#0 1343714137#1 1343714137#3 1148194090#1 362206700#0 362206700#1 362206700#4 362206700#9 362206700#11 362206700#12 1109946346#0 553253466#0 553253466#1 553253466#2 1312841562#1 1312841563 363477540#0 363477540#1 1182221973#3"/>
    </vehicle>
    <vehicle id="cbd20" type="cbd_passenger" depart="80.00" departPos="10.66" arrivalPos="40.27">
        <route edges="160558221#0 160558221#1 160558221#5 160558221#7 452860327#0 452860327#1 1148406429 736395475#0 736395475#1 38542534#1 1267185541#0 763048421#1 763048421#2 -763048420#7 -763048420#1 1109946345#0 1249434050#0 1249434050#3 362206701#1 362206701#5 362206701#6 1148408386#1 363452629#0 360861358#0 360861358#6 503401205#1 589685544 52063523#0 52063523#2 52063523#4 506310567#1 730432812#0 730432812#4 730432812#5 1373661996 46728567#0 23029715#0"/>
    </vehicle>
    <vehicle id="cbd21" type="cbd_passenger" depart="84.00" departPos="2.10" arrivalPos="11.29">
        <route edges="1205171800#0 1205171800#1 26283603 1205171802#0 1312434983#0 1312434983#1 1312434983#2 1312434983#3 1373661996 46728567#0 46728567#5 46728567#7 46728567#9 -45308260#8 -720099000#1"/>
    </vehicle>
    <vehicle id="cbd22" type="cbd_passenger" depart="88.00" departPos="140.50" arrivalPos="170.87">
        <route edges="36883288#0 36883288#1 736395474 736395475#1 38542534#1 1267185541#0 763048421#1 763048421#2 -763048420#7 -763048420#1 1109946345#0 1249434050#0 1249434050#3 362206700#11 362206700#12 1109946346#0 553253466#0 553253466#1 553253466#2 1312841562#1 1312841563 358318632#1"/>
    </vehicle>
    <vehicle id="cbd23" type="cbd_passenger" depart="92.00" departPos="102.34" arrivalPos="2.86">
        <route edges="-23029715#2 46728567#5 46728567#7 46728567#9 -45308260#8 -45308260#4 38773813#0 -1098770448"/>
    </vehicle>
    <vehicle id="cbd24" type="cbd_passenger" depart="96.00" departPos="307.08" arrivalPos="3.93">
        <route edges="1091198034#0 1091198032#3 1091198032#4 1091198032#5 1091198030#0 -991536561#1 991536562#0 991536562#1 362206701#1 362206701#5 362206701#6 1148408386#1 363452629#0 360861353#1 1337983630 458439815#0 -316536545#2 -316536545#1 -316536545#0"/>
    </vehicle>
    <vehicle id="cbd25" type="cbd_passenger" depart="100.00" departPos="34.10" arrivalPos="32.21">
        <route edges="-1184938064 1184938064"/>
    </vehicle>
    <vehicle id="cbd26" type="cbd_passenger" depart="104.00" departPos="24.27" arrivalPos="12.23">
        <route edges="-1224538514 1066895467#3 1066895467#8 36913434#6 1110191850#0 26283603 1205171802#0 1312434983#0 1312434983#1 1312434983#2 1312434983#3 107215083#0 107215083#1 1232642395 359476589 359476587#0 760700372#0 503401204#0 503401204#4 1148408386#1 363452629#0 360861353#1 1337983630 -695042720#2 316536547#1 1184938064"/>
    </vehicle>
    <vehicle id="cbd27" type="cbd_passenger" depart="108.00" departPos="7.33" arrivalPos="8.33">
        <route edges="1205171800#0 1205171800#1 26283603 1205171802#0 1312434983#0 1312434983#1 1312434983#2 1312434983#3 107215083#0 107215083#1 1232642395 359476589 359476587#0 760700372#0 503401204#0 503401204#4 362206700#0 362206700#1 362206700#4 362206700#9 362206700#11 362206700#12 1109946346#0 553253466#0 1240166718 1109946344#2 1193542609 -250717622#6 1096187527#0"/>
    </vehicle>
    <vehicle id="cbd28" type="cbd_passenger" depart="112.00" departPos="5.64" arrivalPos="46.54">
        <route edges="36913438#0 -36913438#0 1210473310#0 26808007#0 503401206#0 52246044#1 52246044#5 36913437#0"/>
    </vehicle>
    <vehicle id="cbd29" type="cbd_passenger" depart="116.00" departPos="6.28" arrivalPos="9.35">
        <route edges="107215088#0 107215088#1 1148718165#0 362900184 359476587#0 760700372#0 503401204#0 503401204#4 1148408386#1 363452629#0 360861353#1 1337983630 458439815#0 -316536545#2 -316536545#1 1152469184"/>
    </vehicle>
    <vehicle id="cbd30" type="cbd_passenger" depart="120.00" departPos="250.20" arrivalPos="0.89">
        <route edges="26807972#0 172920298#0 152051153#14 152051153#17 130355529#0 130355529#1 1221922602 161416660#0 161416660#2 161416660#3"/>
    </vehicle>
    <vehicle id="cbd31" type="cbd_passenger" depart="124.00" departPos="36.63" arrivalPos="0.94">
        <route edges="160558221#0 160558221#1 160558221#5 160558221#7 452860327#0 452860327#1 1148406429 736395475#0 736395475#1 38542534#1 1267185541#0 763048421#1 763048421#2 -763048420#7 -763048420#1 1109946345#0 1249434050#0 1249434050#3 362206701#1 362206701#5 362206701#6 1148408386#1 363452629#0 360861353#1 1337983630 458439815#0 -316536545#2 -316536545#1 -316536545#0"/>
    </vehicle>
    <vehicle id="cbd32" type="cbd_passenger" depart="128.00" departPos="74.91" arrivalPos="4.63">
        <route edges="-52060801 1066895467#8 36913434#6 1110191850#0 26283603 1205171802#0 1312434983#0 1312434983#1 1312434983#2 1312434983#3 107215083#0 107215083#1 1232642395 359476589 359476587#0 760700372#0 503401204#0 503401204#4 362206700#0 362206700#1 362206700#4 362206700#9 362206700#11 362206700#12 1109946346#0 553253466#0 553253466#1 553253466#2 1312841562#1 1312841563 363477540#0 363477540#1 1182221973#3"/>
    </vehicle>
    <vehicle id="cbd33" type="cbd_passenger" depart="132.00" departPos="12.92" arrivalPos="26.40">
        <route edges="391160974#0 36882311#0 36882311#7 1091198032#3 1091198032#4 1091198032#5 1091198030#0 -991536561#1 991536562#0 991536562#1 362206701#1 362206701#5 362206701#6 1148408386#1 363452629#0 360861358#0 360861358#6 503401205#1 589685544 52063523#0 52063523#2 52063523#4 506310567#1 730432812#0 730432812#4 730432812#5 1373661996 46728567#0 46728567#5 46728567#7 46728567#9 1066895467#0 1066895467#2 1224538514"/>
    </vehicle>
    <vehicle id="cbd34" type="cbd_passenger" depart="136.00" departPos="306.84" arrivalPos="75.99">
        <route edges="26807972#0 26807972#4 1321561533 172920277#0 360861358#0 360861358#6 503401205#1 589685544 52063523#0 52063523#2 52063523#4 506310567#1 730432812#0 730432812#4 730432812#5 1106110231#0 1106110231#1 1368125926"/>
    </vehicle>
    <vehicle id="cbd35" type="cbd_passenger" depart="140.00" departPos="10.26" arrivalPos="11.24">
        <route edges="36970838#0 238459130#1 23076279#0 23076279#2 1343714137#1 1343714137#3 1148194090#1 362206700#0 362206700#1 362206700#4 362206700#9 362206700#11 362206700#12 1109946346#0 553253466#0 553253466#1 553253466#2 1312841562#1 1312841563 363477540#0 363477540#1 1182221973#3"/>
    </vehicle>
    <vehicle id="cbd36" type="cbd_passenger" depart="144.00" departPos="31.34" arrivalPos="53.69">
        <route edges="-1152469184 316536545#1 -36913438#2 -36913438#1 -36913438#0 1210473310#0 26808007#0 503401206#0 503401205#1 589685544 52063523#0 52063523#2 52063523#4 506310567#1 730432812#0 730432812#4 730432812#5 1373661996 46728567#0 46728567#5 -226972108#3"/>
    </vehicle>
    <vehicle id="cbd37" type="cbd_passenger" depart="148.00" departPos="82.91" arrivalPos="49.63">
        <route edges="-52060801 1066895467#8 36913434#6 1110191850#0 26283603 1205171802#0 1312434983#0 1312434983#1 1312434983#2 1312434983#3 107215083#0 107215083#1 1232642395 359476589 359476587#0 760700372#0 503401204#0 503401204#4 152051153#0 152051153#1 37110390 1321561533 -172920274#2"/>
    </vehicle>
    <vehicle id="cbd38" type="cbd_passenger" depart="152.00" departPos="16.29" arrivalPos="3.98">
        <route edges="-1224538514 1066895467#3 1066895467#8 36913434#6 1110191850#0 26283603 1205171802#0 1312434983#0 1312434983#1 1312434983#2 1312434983#3 107215083#0 107215083#1 1232642395 359476589 359476587#0 760700372#0 503401204#0 503401204#4 152051153#0 152051153#1 152051153#12 152051153#14 152051153#17 1221922603 1267185544 1148406433 1148406430#0 503401202#0"/>
    </vehicle>
    <vehicle id="cbd39" type="cbd_passenger" depart="156.00" departPos="27.82" arrivalPos="52.84">
        <route edges="-1152469184 316536545#1 -36913438#2 -36913438#1 -36913438#0 1210473310#0 1337983630 -695042720#2 316536547#1 1184938064"/>
    </vehicle>
    <vehicle id="cbd40" type="cbd_passenger" depart="160.00" departPos="155.38" arrivalPos="41.85">
        <route edges="238459130#0 238459130#1 52063533#0 503401206#0 503401205#1 589685544 52063523#0 52063523#2 52063523#4 506310567#1 730432812#0 730432812#4 730432812#5 36913434#0 36913434#1 -1066895467#10 52060801"/>
    </vehicle>
    <vehicle id="cbd41" type="cbd_passenger" depart="164.00" departPos="1.42" arrivalPos="65.59">
        <route edges="1096795626 -36913438#0 1210473310#0 1343714137#1 1343714137#3 1148194090#1 152051153#0 152051153#1 37110390 1321561533 -172920274#2"/>
    </vehicle>
    <vehicle id="cbd42" type="cbd_passenger" depart="168.00" departPos="15.64" arrivalPos="56.12">
        <route edges="238459130#0 238459130#1 52063533#0 503401206#0 503401205#1 589685544 52063523#0 52063523#2 52063523#4 506310567#1 730432812#0 730432812#4 730432812#5 36913434#0 36913434#1 -1066895467#10 52060801"/>
    </vehicle>
    <vehicle id="cbd43" type="cbd_passenger" depart="172.00" departPos="21.81" arrivalPos="19.97">
        <route edges="1101945530#0 1101945530#1 1101945530#2 1373661996 46728567#0 46728567#5 46728567#7 46728567#9 -45308260#8 -720099000#1"/>
    </vehicle>
    <vehicle id="cbd44" type="cbd_passenger" depart="176.00" departPos="264.07" arrivalPos="150.55">
        <route edges="1091198034#0 1091198032#3 1091198032#4 1091198032#5 1091198030#0 -991536561#1 991536562#0 991536562#1 362206701#1 362206701#5 362206701#6 1148408386#1 363452629#0 360861353#1 1337983630 458439815#0 458439815#1 458439815#2"/>
    </vehicle>
    <vehicle id="cbd45" type="cbd_passenger" depart="180.00" departPos="10.16" arrivalPos="50.38">
        <route edges="-1224538514 1066895467#3 1066895467#8 36913434#6 1110191850#0 26283603 1205171802#0 1312434983#0 1312434983#1 1312434983#2 1312434983#3 107215083#0 107215083#1 1232642395 359476589 359476587#0 760700372#0 503401204#0 503401204#4 1148408386#1 363452629#0 360861353#1 1337983630 458439815#0 -316536545#2 -316536545#1 1152469184"/>
    </vehicle>
    <vehicle id="cbd46" type="cbd_passenger" depart="184.00" departPos="88.12" arrivalPos="34.93">
        <route edges="-1152469184 316536545#1 -36913438#2 -36913438#1 -36913438#0 1210473310#0 26808007#0 503401206#0 503401205#1 589685544 52063523#0 52063523#2 52063523#4 506310567#1 730432812#0 730432812#4 730432812#5 36913434#0 36913434#1 36913434#6 150785560#0 1148155464"/>
    </vehicle>
    <vehicle id="cbd47" type="cbd_passenger" depart="188.00" departPos="12.78" arrivalPos="1.00">
        <route edges="-1096187527#1 -763048420#1 1109946345#0 1249434050#0 1249434050#3 362206700#11 362206700#12 1109946346#0 553253466#0 553253466#1 553253466#2 1312841562#1 1312841563 363477540#0 363477540#1 1182221973#3"/>
    </vehicle>
    <vehicle id="cbd48" type="cbd_passenger" depart="192.00" departPos="20.21" arrivalPos="528.43">
        <route edges="226972108#0 46728567#7 46728567#9 1066895467#0 1066895467#2 1066895467#3 1066895467#8 36913434#6 1110191850#0 26283603 1205171802#0 1312434983#0 1312434983#1 1312434983#2 1312434983#3 107215083#0 107215083#1 1232642395 359476589 359476587#0 760700372#0 503401204#0 503401204#4 152051153#0 152051153#1 152051153#12 152051153#14 152051153#17 1221922603 1267185544 1148406433 1148406430#0 503401202#0"/>
    </vehicle>
    <vehicle id="cbd49" type="cbd_passenger" depart="196.00" departPos="24.30" arrivalPos="21.44">
        <route edges="316536545#0 316536545#1 -36913438#2 -36913438#1 -36913438#0 1210473310#0 26808007#0 503401206#0 503401205#1 589685544 52063523#0 52063523#2 52063523#4 506310567#1 730432812#0 730432812#4 730432812#5 1373661996 46728567#0 46728567#5 46728567#7 46728567#9 -45308260#8 -45308260#4 38773813#0 -1098770448"/>
    </vehicle>
    <vehicle id="cbd50" type="cbd_passenger" depart="200.00" departPos="25.38" arrivalPos="8.21">
        <route edges="160558221#0 160558221#1 160558221#5 160558221#7 452860327#0 452860327#1 1148406429 736395475#0 736395475#1 38542534#1 1267185541#0 763048421#1 763048421#2 -763048420#7 -763048420#1 1109946345#0 1249434050#0 1249434050#3 362206701#1 362206701#5 362206701#6 1148408386#1 363452629#0 360861358#0 360861358#6 503401205#1 589685544 52063523#0 52063523#2 52063523#4 506310567#1 730432812#0 730432812#4 730432812#5 1373661996 46728567#0 46728567#5 46728567#7 46728567#9 -45308260#8 -45308260#4 38773813#0 -1098770448"/>
    </vehicle>
    <vehicle id="cbd51" type="cbd_passenger" depart="204.00" departPos="46.96" arrivalPos="143.30">
        <route edges="-1312448642 52242930#2 779282855#0 779282855#1 779282855#2 736395475#0 736395475#1 38542534#1 1267185541#0 763048421#1 763048421#2 -763048420#7 -763048420#1 1109946345#0 1249434050#0 1249434050#3 362206701#1 362206701#5 362206701#6 1148408386#1 363452629#0 360861358#0 360861358#6 503401205#1 589685544 52063523#0 52063523#2 52063523#4 506310567#1 730432812#0 730432812#4 730432812#5 1373661996 46728567#0 46728567#5 46728567#7 46728567#9 23029705#0"/>
    </vehicle>
    <vehicle id="cbd52" type="cbd_passenger" depart="208.00" departPos="17.15" arrivalPos="54.43">
        <route edges="-23029715#2 46728567#5 46728567#7 46728567#9 1066895467#0 1066895467#2 1066895467#3 1066895467#8 36913434#6 1110191850#0 26283603 1205171802#0 1312434983#0 1312434983#1 1312434983#2 1312434983#3 107215083#0 107215083#1 1232642395 359476589 359476587#0 760700372#0 503401204#0 503401204#4 1148408386#1 363452629#0 360861353#1 1337983630 458439815#0 -316536545#2 -316536545#1 1152469184"/>
    </vehicle>
    <vehicle id="cbd53" type="cbd_passenger" depart="212.00" departPos="11.93" arrivalPos="2.41">
        <route edges="36913438#0 -36913438#0 1210473310#0 1343714137#1 1343714137#3 1148194090#1 362206700#0 362206700#1 362206700#4 362206700#9 362206700#11 362206700#12 1109946346#0 553253466#0 1240166718 1109946344#2 1193542609 -250717622#6 763048420#2 338941361#0 38542543 52245576#0 1368389075#0 1148406432#6 1148406432#13"/>
    </vehicle>
    <vehicle id="cbd54" type="cbd_passenger" depart="216.00" departPos="187.96" arrivalPos="13.45">
        <route edges="1091198034#0 1091198032#3 1091198032#4 1091198032#5 1091198030#0 -991536561#1 991536562#0 991536562#1 362206701#1 362206701#5 362206701#6 1148408386#1 363452629#0 360861358#0 360861358#6 503401205#1 589685544 52063523#0 52063523#2 52063523#4 506310567#1 730432812#0 730432812#4 730432812#5 1373661996 46728567#0 46728567#5 46728567#7 46728567#9 1066895467#0 1066895467#2 1224538514"/>
    </vehicle>
    <vehicle id="cbd55" type="cbd_passenger" depart="220.00" departPos="24.60" arrivalPos="13.94">
        <route edges="-1224538514 -1066895467#2 -208701339#2 1308629005"/>
    </vehicle>
    <vehicle id="cbd56" type="cbd_passenger" depart="224.00" departPos="38.64" arrivalPos="27.51">
        <route edges="-1308629005 208701339#2 1066895467#2 1066895467#3 1066895467#8 36913434#6 1110191850#0 26283603 1205171802#0 1312434983#0 1312434983#1 1312434983#2 1312434983#3 107215083#0 107215083#1 1232642395 359476589 359476587#0 760700372#0 503401204#0 503401204#4 1148408386#1 363452629#0 360861353#1 45444030#1"/>
    </vehicle>
    <vehicle id="cbd57" type="cbd_passenger" depart="228.00" departPos="20.18" arrivalPos="324.02">
        <route edges="160558221#0 160558221#1 160558221#5 160558221#7 764327044#0 503401202#0"/>
    </vehicle>
    <vehicle id="cbd58" type="cbd_passenger" depart="232.00" departPos="6.67" arrivalPos="125.03">
        <route edges="316536545#0 316536545#1 316536545#2 458439815#1 458439815#2"/>
    </vehicle>
    <vehicle id="cbd59" type="cbd_passenger" depart="236.00" departPos="30.49" arrivalPos="164.83">
        <route edges="36913438#0 -36913438#0 1210473310#0 26808007#0 503401206#0 503401205#1 589685544 52063523#0 52063523#2 52063523#4 554901329 1106310175 362900185"/>
    </vehicle>
    <vehicle id="cbd60" type="cbd_passenger" depart="240.00" departPos="23.46" arrivalPos="1.68">
        <route edges="316536545#0 316536545#1 -36913438#2 -36913438#1 -36913438#0 1210473310#0 26808007#0 503401206#0 503401205#1 589685544 52063523#0 52063523#2 52063523#4 506310567#1 730432812#0 730432812#4 730432812#5 36913434#0 36913434#1 36913434#6 1110191850#0 1148155463"/>
    </vehicle>
    <vehicle id="cbd61" type="cbd_passenger" depart="244.00" departPos="54.31" arrivalPos="30.55">
        <route edges="-52060801 1066895467#8 36913434#6 1110191850#0 26283603 1205171802#0 1312434983#0 1312434983#1 1312434983#2 1312434983#3 107215083#0 107215083#1 1232642395 359476589 359476587#0 760700372#0 503401204#0 503401204#4 152051153#0 152051153#1 37110390 1321561533 -172920274#2"/>
    </vehicle>
    <vehicle id="cbd62" type="cbd_passenger" depart="248.00" departPos="165.95" arrivalPos="41.38">
        <route edges="172920274#0 172920277#0 360861353#1 45444030#1"/>
    </vehicle>
    <vehicle id="cbd63" type="cbd_passenger" depart="252.00" departPos="184.65" arrivalPos="27.49">
        <route edges="52242930#0 52242930#2 779282855#0 779282855#1 779282855#2 736395475#0 736395475#1 38542534#1 1267185541#0 763048421#1 763048421#2 -763048420#7 1096187527#0"/>
    </vehicle>
    <vehicle id="cbd64" type="cbd_passenger" depart="256.00" departPos="36.98" arrivalPos="3.75">
        <route edges="-1308629005 208701339#2 1066895467#2 1066895467#3 1066895467#8 36913434#6 1110191850#0 26283603 1205171802#0 1312434983#0 1312434983#1 1312434983#2 1312434983#3 107215083#0 107215083#1 1232642395 359476589 359476587#0 760700372#0 503401204#0 503401204#4 152051153#0 152051153#1 152051153#12 152051153#14 152051153#17 130355529#0 130355529#1 1221922602 161416660#0 161416660#2 161416660#3"/>
    </vehicle>
    <vehicle id="cbd65" type="cbd_passenger" depart="260.00" departPos="25.17" arrivalPos="16.86">
        <route edges="316536545#0 316536545#1 -36913438#2 -36913438#1 -36913438#0 1210473310#0 26808007#0 503401206#0 503401205#1 589685544 52063523#0 52063523#2 52063523#4 506310567#1 730432812#0 730432812#4 730432812#5 1373661996 46728567#0 46728567#5 46728567#7 46728567#9 1066895467#0 1066895467#2 1224538514"/>
    </vehicle>
    <vehicle id="cbd66" type="cbd_passenger" depart="264.00" departPos="9.95" arrivalPos="17.55">
        <route edges="391160931#0 391160931#1 391160931#7 1347255639 1109946344#0 1109946344#2 1193542609 -250717622#6 763048420#2 338941361#0 38542543 52245576#0 1368389075#0 1148406432#6 1148406432#13"/>
    </vehicle>
    <vehicle id="cbd67" type="cbd_passenger" depart="268.00" departPos="31.73" arrivalPos="0.77">
        <route edges="-1308629005 208701339#2 1066895467#2 1066895467#3 1066895467#8 36913434#6 1110191850#0 26283603 1205171802#0 1312434983#0 1312434983#1 1312434983#2 1312434983#3 1373661996 46728567#0 46728567#5 -226972108#3"/>
    </vehicle>
    <vehicle id="cbd68" type="cbd_passenger" depart="272.00" departPos="113.02" arrivalPos="7.31">
        <route edges="720099000#0 -45308260#4 38773813#0 -1098770448"/>
    </vehicle>
    <vehicle id="cbd69" type="cbd_passenger" depart="276.00" departPos="263.14" arrivalPos="5.20">
        <route edges="1054230460#0 1347255639 1109946344#0 1109946344#2 1193542609 -250717622#6 763048420#2 338941361#0 338941361#4 338941361#5 -1267185541#2 1267185542#0 1267185542#1 736395475#3 130355529#1 1221922602 161416660#0 161416660#2 161416660#3"/>
    </vehicle>
    <vehicle id="cbd70" type="cbd_passenger" depart="280.00" departPos="14.10" arrivalPos="104.92">
        <route edges="391160974#0 36882311#0 36882311#7 1091198032#3 1091198032#4 1091198032#5 1091198030#0 -991536561#1 991536562#0 991536562#1 362206701#1 362206701#5 362206701#6 1148408386#1 363452629#0 360861353#1 45444030#1"/>
    </vehicle>
    <vehicle id="cbd71" type="cbd_passenger" depart="284.00" departPos="147.16" arrivalPos="11.82">
        <route edges="238459130#0 238459130#1 23076279#0 23076279#2 1343714137#1 1343714137#3 1148194090#1 362206700#0 362206700#1 362206700#4 362206700#9 362206700#11 362206700#12 1109946346#0 553253466#0 553253466#1 553253466#2 1312841562#1 1312841563 363477540#0 363477540#1 1182221973#3"/>
    </vehicle>
    <vehicle id="cbd72" type="cbd_passenger" depart="288.00" departPos="85.25" arrivalPos="28.86">