<?xml version="1.0" encoding="UTF-8"?>

<!-- generated on 2026-04-29 19:44:57.030646 by Eclipse SUMO randomTrips.py v1.26.0
<configuration>
    <net-file value="../simulation/bengaluru_cbd/bengaluru_cbd.net.xml"/>
    <output-trip-file value="../simulation/bengaluru_cbd/bengaluru_cbd_trips.trips.xml"/>
    <route-file value="../simulation/bengaluru_cbd/bengaluru_cbd_routes.rou.xml"/>
    <prefix value="cbd"/>
    <vehicle-class value="passenger"/>
    <random-departpos value="True"/>
    <random-arrivalpos value="True"/>
    <fringe-factor value="max"/>
    <random value="True"/>
    <remove-loops value="True"/>
    <insertion-rate value="900.0"/>
</configuration>
-->

<routes xmlns:xsi="http://www.w3.org/2001/XMLSchema-instance" xsi:noNamespaceSchemaLocation="http://sumo.dlr.de/xsd/routes_file.xsd">
    <vType id="cbd_passenger" vClass="passenger"/>
    <trip id="cbd0" depart="0.00" from="52242930#0" to="362900185" type="cbd_passenger" departPos="107.29" arrivalPos="246.14"/>
    <trip id="cbd1" depart="4.00" from="-1312448642" to="52246044#9" type="cbd_passenger" departPos="45.71" arrivalPos="54.24"/>
    <trip id="cbd2" depart="8.00" from="1101945530#0" to="458439815#2" type="cbd_passenger" departPos="34.19" arrivalPos="62.41"/>
    <trip id="cbd3" depart="12.00" from="-1312448642" to="1184938064" type="cbd_passenger" departPos="92.91" arrivalPos="46.20"/>
    <trip id="cbd4" depart="16.00" from="160558221#0" to="1182221973#3" type="cbd_passenger" departPos="19.81" arrivalPos="10.59"/>
    <trip id="cbd5" depart="20.00" from="-1312448642" to="1096187527#0" type="cbd_passenger" departPos="57.89" arrivalPos="15.64"/>
    <trip id="cbd6" depart="24.00" from="-52060801" to="362900185" type="cbd_passenger" departPos="45.97" arrivalPos="277.31"/>
    <trip id="cbd7" depart="28.00" from="1096795626" to="1152469184" type="cbd_passenger" departPos="48.85" arrivalPos="36.11"/>
    <trip id="cbd8" depart="32.00" from="36883288#0" to="1184938064" type="cbd_passenger" departPos="96.84" arrivalPos="2.65"/>
    <trip id="cbd9" depart="36.00" from="1238638853" to="1308629005" type="cbd_passenger" departPos="13.34" arrivalPos="29.35"/>
    <trip id="cbd10" depart="40.00" from="1091198034#0" to="-172920274#2" type="cbd_passenger" departPos="210.60" arrivalPos="146.93"/>
    <trip id="cbd11" depart="44.00" from="-23029715#2" to="1152469184" type="cbd_passenger" departPos="117.16" arrivalPos="60.09"/>
    <trip id="cbd12" depart="48.00" from="391160974#0" to="-720099000#1" type="cbd_passenger" departPos="30.57" arrivalPos="45.17"/>
    <trip id="cbd13" depart="52.00" from="-1152469184" to="1182221973#3" type="cbd_passenger" departPos="24.43" arrivalPos="4.09"/>
    <trip id="cbd14" depart="56.00" from="1101945530#0" to="161416660#3" type="cbd_passenger" departPos="16.91" arrivalPos="3.91"/>
    <trip id="cbd15" depart="60.00" from="-1224538514" to="358318632#1" type="cbd_passenger" departPos="27.29" arrivalPos="53.02"/>
    <trip id="cbd16" depart="64.00" from="36883288#0" to="23029705#0" type="cbd_passenger" departPos="102.89" arrivalPos="79.25"/>
    <trip id="cbd17" depart="68.00" from="-1152469184" to="23029705#0" type="cbd_passenger" departPos="38.22" arrivalPos="164.16"/>
    <trip id="cbd18" depart="72.00" from="1101945530#0" to="36913437#0" type="cbd_passenger" departPos="21.71" arrivalPos="264.37"/>
    <trip id="cbd19" depart="76.00" from="36913438#0" to="1182221973#3" type="cbd_passenger" departPos="7.17" arrivalPos="8.01"/>
    <trip id="cbd20" depart="80.00" from="160558221#0" to="23029715#0" type="cbd_passenger" departPos="10.66" arrivalPos="40.27"/>
    <trip id="cbd21" depart="84.00" from="1205171800#0" to="-720099000#1" type="cbd_passenger" departPos="2.10" arrivalPos="11.29"/>
    <trip id="cbd22" depart="88.00" from="36883288#0" to="358318632#1" type="cbd_passenger" departPos="140.50" arrivalPos="170.87"/>
    <trip id="cbd23" depart="92.00" from="-23029715#2" to="-1098770448" type="cbd_passenger" departPos="102.34" arrivalPos="2.86"/>
    <trip id="cbd24" depart="96.00" from="1091198034#0" to="-316536545#0" type="cbd_passenger" departPos="307.08" arrivalPos="3.93"/>
    <trip id="cbd25" depart="100.00" from="-1184938064" to="1184938064" type="cbd_passenger" departPos="34.10" arrivalPos="32.21"/>
    <trip id="cbd26" depart="104.00" from="-1224538514" to="1184938064" type="cbd_passenger" departPos="24.27" arrivalPos="12.23"/>
    <trip id="cbd27" depart="108.00" from="1205171800#0" to="1096187527#0" type="cbd_passenger" departPos="7.33" arrivalPos="8.33"/>
    <trip id="cbd28" depart="112.00" from="36913438#0" to="36913437#0" type="cbd_passenger" departPos="5.64" arrivalPos="46.54"/>
    <trip id="cbd29" depart="116.00" from="107215088#0" to="1152469184" type="cbd_passenger" departPos="6.28" arrivalPos="9.35"/>
    <trip id="cbd30" depart="120.00" from="26807972#0" to="161416660#3" type="cbd_passenger" departPos="250.20" arrivalPos="0.89"/>
    <trip id="cbd31" depart="124.00" from="160558221#0" to="-316536545#0" type="cbd_passenger" departPos="36.63" arrivalPos="0.94"/>
    <trip id="cbd32" depart="128.00" from="-52060801" to="1182221973#3" type="cbd_passenger" departPos="74.91" arrivalPos="4.63"/>
    <trip id="cbd33" depart="132.00" from="391160974#0" to="1224538514" type="cbd_passenger" departPos="12.92" arrivalPos="26.40"/>
    <trip id="cbd34" depart="136.00" from="26807972#0" to="1368125926" type="cbd_passenger" departPos="306.84" arrivalPos="75.99"/>
    <trip id="cbd35" depart="140.00" from="36970838#0" to="1182221973#3" type="cbd_passenger" departPos="10.26" arrivalPos="11.24"/>
    <trip id="cbd36" depart="144.00" from="-1152469184" to="-226972108#3" type="cbd_passenger" departPos="31.34" arrivalPos="53.69"/>
    <trip id="cbd37" depart="148.00" from="-52060801" to="-172920274#2" type="cbd_passenger" departPos="82.91" arrivalPos="49.63"/>
    <trip id="cbd38" depart="152.00" from="-1224538514" to="503401202#0" type="cbd_passenger" departPos="16.29" arrivalPos="3.98"/>
    <trip id="cbd39" depart="156.00" from="-1152469184" to="1184938064" type="cbd_passenger" departPos="27.82" arrivalPos="52.84"/>
    <trip id="cbd40" depart="160.00" from="238459130#0" to="52060801" type="cbd_passenger" departPos="155.38" arrivalPos="41.85"/>
    <trip id="cbd41" depart="164.00" from="1096795626" to="-172920274#2" type="cbd_passenger" departPos="1.42" arrivalPos="65.59"/>
    <trip id="cbd42" depart="168.00" from="238459130#0" to="52060801" type="cbd_passenger" departPos="15.64" arrivalPos="56.12"/>
    <trip id="cbd43" depart="172.00" from="1101945530#0" to="-720099000#1" type="cbd_passenger" departPos="21.81" arrivalPos="19.97"/>
    <trip id="cbd44" depart="176.00" from="1091198034#0" to="458439815#2" type="cbd_passenger" departPos="264.07" arrivalPos="150.55"/>
    <trip id="cbd45" depart="180.00" from="-1224538514" to="1152469184" type="cbd_passenger" departPos="10.16" arrivalPos="50.38"/>
    <trip id="cbd46" depart="184.00" from="-1152469184" to="1148155464" type="cbd_passenger" departPos="88.12" arrivalPos="34.93"/>
    <trip id="cbd47" depart="188.00" from="-1096187527#1" to="1182221973#3" type="cbd_passenger" departPos="12.78" arrivalPos="1.00"/>
    <trip id="cbd48" depart="192.00" from="226972108#0" to="503401202#0" type="cbd_passenger" departPos="20.21" arrivalPos="528.43"/>
    <trip id="cbd49" depart="196.00" from="316536545#0" to="-1098770448" type="cbd_passenger" departPos="24.30" arrivalPos="21.44"/>
    <trip id="cbd50" depart="200.00" from="160558221#0" to="-1098770448" type="cbd_passenger" departPos="25.38" arrivalPos="8.21"/>
    <trip id="cbd51" depart="204.00" from="-1312448642" to="23029705#0" type="cbd_passenger" departPos="46.96" arrivalPos="143.30"/>
    <trip id="cbd52" depart="208.00" from="-23029715#2" to="1152469184" type="cbd_passenger" departPos="17.15" arrivalPos="54.43"/>
    <trip id="cbd53" depart="212.00" from="36913438#0" to="1148406432#13" type="cbd_passenger" departPos="11.93" arrivalPos="2.41"/>
    <trip id="cbd54" depart="216.00" from="1091198034#0" to="1224538514" type="cbd_passenger" departPos="187.96" arrivalPos="13.45"/>
    <trip id="cbd55" depart="220.00" from="-1224538514" to="1308629005" type="cbd_passenger" departPos="24.60" arrivalPos="13.94"/>
    <trip id="cbd56" depart="224.00" from="-1308629005" to="45444030#1" type="cbd_passenger" departPos="38.64" arrivalPos="27.51"/>
    <trip id="cbd57" depart="228.00" from="160558221#0" to="503401202#0" type="cbd_passenger" departPos="20.18" arrivalPos="324.02"/>
    <trip id="cbd58" depart="232.00" from="316536545#0" to="458439815#2" type="cbd_passenger" departPos="6.67" arrivalPos="125.03"/>
    <trip id="cbd59" depart="236.00" from="36913438#0" to="362900185" type="cbd_passenger" departPos="30.49" arrivalPos="164.83"/>
    <trip id="cbd60" depart="240.00" from="316536545#0" to="1148155463" type="cbd_passenger" departPos="23.46" arrivalPos="1.68"/>
    <trip id="cbd61" depart="244.00" from="-52060801" to="-172920274#2" type="cbd_passenger" departPos="54.31" arrivalPos="30.55"/>
    <trip id="cbd62" depart="248.00" from="172920274#0" to="45444030#1" type="cbd_passenger" departPos="165.95" arrivalPos="41.38"/>
    <trip id="cbd63" depart="252.00" from="52242930#0" to="1096187527#0" type="cbd_passenger" departPos="184.65" arrivalPos="27.49"/>
    <trip id="cbd64" depart="256.00" from="-1308629005" to="161416660#3" type="cbd_passenger" departPos="36.98" arrivalPos="3.75"/>
    <trip id="cbd65" depart="260.00" from="316536545#0" to="1224538514" type="cbd_passenger" departPos="25.17" arrivalPos="16.86"/>
    <trip id="cbd66" depart="264.00" from="391160931#0" to="1148406432#13" type="cbd_passenger" departPos="9.95" arrivalPos="17.55"/>
    <trip id="cbd67" depart="268.00" from="-1308629005" to="-226972108#3" type="cbd_passenger" departPos="31.73" arrivalPos="0.77"/>
    <trip id="cbd68" depart="272.00" from="720099000#0" to="-1098770448" type="cbd_passenger" departPos="113.02" arrivalPos="7.31"/>
    <trip id="cbd69" depart="276.00" from="1054230460#0" to="161416660#3" type="cbd_passenger" departPos="263.14" arrivalPos="5.20"/>
    <trip id="cbd70" depart="280.00" from="391160974#0" to="45444030#1" type="cbd_passenger" departPos="14.10" arrivalPos="104.92"/>
    <trip id="cbd71" depart="284.00" from="238459130#0" to="1182221973#3" type="cbd_passenger" departPos="147.16" arrivalPos="11.82"/>
    <trip id="cbd72" depart="288.00" from="238459130#0" to="1368125926" type="cbd_passenger" departPos="85.25" arrivalPos="28.86"/>
    <trip id="cbd73" depart="292.00" from="107215088#0" to="-172920274#2" type="cbd_passenger" departPos="2.10" arrivalPos="117.05"/>
    <trip id="cbd74" depart="296.00" from="391160974#0" to="458439815#2" type="cbd_passenger" departPos="25.00" arrivalPos="176.03"/>
    <trip id="cbd75" depart="300.00" from="-1308629005" to="-720099000#1" type="cbd_passenger" departPos="17.25" arrivalPos="83.91"/>
    <trip id="cbd76" depart="304.00" from="391160931#0" to="1152469184" type="cbd_passenger" departPos="8.94" arrivalPos="12.16"/>
    <trip id="cbd77" depart="308.00" from="52242930#0" to="1096187536#1" type="cbd_passenger" departPos="509.95" arrivalPos="42.87"/>
    <trip id="cbd78" depart="312.00" from="766406223#0" to="23029705#0" type="cbd_passenger" departPos="21.20" arrivalPos="142.62"/>
    <trip id="cbd79" depart="316.00" from="36970838#0" to="161416660#3" type="cbd_passenger" departPos="23.26" arrivalPos="9.18"/>
    <trip id="cbd80" depart="320.00" from="-52060801" to="1368125926" type="cbd_passenger" departPos="37.90" arrivalPos="81.68"/>
    <trip id="cbd81" depart="324.00" from="-1308629005" to="638928391" type="cbd_passenger" departPos="15.57" arrivalPos="292.66"/>
    <trip id="cbd82" depart="328.00" from="107215088#0" to="-316536545#0" type="cbd_passenger" departPos="4.07" arrivalPos="17.83"/>
    <trip id="cbd83" depart="332.00" from="160558221#0" to="23029715#0" type="cbd_passenger" departPos="13.96" arrivalPos="113.13"/>
    <trip id="cbd84" depart="336.00" from="1238638853" to="1368125926" type="cbd_passenger" departPos="47.23" arrivalPos="92.60"/>
    <trip id="cbd85" depart="340.00" from="-1312448642" to="1224538514" type="cbd_passenger" departPos="110.32" arrivalPos="17.65"/>
    <trip id="cbd86" depart="344.00" from="36970838#0" to="52060801" type="cbd_passenger" departPos="21.11" arrivalPos="32.13"/>
    <trip id="cbd87" depart="348.00" from="36883288#0" to="45444030#1" type="cbd_passenger" departPos="131.14" arrivalPos="285.63"/>
    <trip id="cbd88" depart="352.00" from="-23029715#2" to="52060801" type="cbd_passenger" departPos="156.39" arrivalPos="16.19"/>
    <trip id="cbd89" depart="356.00" from="36883288#0" to="503401202#0" type="cbd_passenger" departPos="117.57" arrivalPos="451.98"/>
    <trip id="cbd90" depart="360.00" from="107215088#0" to="1224538514" type="cbd_passenger" departPos="1.89" arrivalPos="21.34"/>
    <trip id="cbd91" depart="364.00" from="1205171800#0" to="1148406432#13" type="cbd_passenger" departPos="7.43" arrivalPos="41.33"/>
    <trip id="cbd92" depart="368.00" from="766406223#0" to="-720099000#1" type="cbd_passenger" departPos="13.57" arrivalPos="34.93"/>
    <trip id="cbd93" depart="372.00" from="1205171800#0" to="161416660#3" type="cbd_passenger" departPos="9.40" arrivalPos="9.25"/>
    <trip id="cbd94" depart="376.00" from="766406223#0" to="1308629005" type="cbd_passenger" departPos="18.69" arrivalPos="21.83"/>
    <trip id="cbd95" depart="380.00" from="-1224538514" to="1096187527#0" type="cbd_passenger" departPos="22.24" arrivalPos="4.98"/>
    <trip id="cbd96" depart="384.00" from="-52060801" to="1148155463" type="cbd_passenger" departPos="61.62" arrivalPos="2.05"/>
    <trip id="cbd97" depart="388.00" from="172920274#0" to="-316536545#0" type="cbd_passenger" departPos="95.39" arrivalPos="10.97"/>
    <trip id="cbd98" depart="392.00" from="238459130#0" to="-316536545#0" type="cbd_passenger" departPos="20.18" arrivalPos="4.72"/>
    <trip id="cbd99" depart="396.00" from="107215088#0" to="358318632#1" type="cbd_passenger" departPos="4.08" arrivalPos="173.89"/>
    <trip id="cbd100" depart="400.00" from="-1184938064" to="1148155463" type="cbd_passenger" departPos="34.19" arrivalPos="1.42"/>
    <trip id="cbd101" depart="404.00" from="107215088#0" to="36913437#0" type="cbd_passenger" departPos="4.68" arrivalPos="307.60"/>
    <trip id="cbd102" depart="408.00" from="766406223#0" to="-720099000#1" type="cbd_passenger" departPos="25.03" arrivalPos="120.80"/>
    <trip id="cbd103" depart="412.00" from="172920274#0" to="1096187527#0" type="cbd_passenger" departPos="13.35" arrivalPos="7.70"/>
    <trip id="cbd104" depart="416.00" from="391160931#0" to="45444030#1" type="cbd_passenger" departPos="7.83" arrivalPos="75.52"/>
    <trip id="cbd105" depart="420.00" from="52242930#0" to="503401202#0" type="cbd_passenger" departPos="210.31" arrivalPos="147.10"/>
    <trip id="cbd106" depart="424.00" from="-23029715#2" to="52060801" type="cbd_passenger" departPos="73.10" arrivalPos="28.53"/>
    <trip id="cbd107" depart="428.00" from="-1152469184" to="161416660#3" type="cbd_passenger" departPos="17.05" arrivalPos="8.51"/>
    <trip id="cbd108" depart="432.00" from="-1152469184" to="1148406432#13" type="cbd_passenger" departPos="38.49" arrivalPos="26.37"/>
    <trip id="cbd109" depart="436.00" from="1205171800#0" to="1148406432#13" type="cbd_passenger" departPos="7.74" arrivalPos="39.38"/>
    <trip id="cbd110" depart="440.00" from="391160931#0" to="23029705#0" type="cbd_passenger" departPos="9.44" arrivalPos="59.49"/>
    <trip id="cbd111" depart="444.00" from="391160931#0" to="1368125926" type="cbd_passenger" departPos="0.27" arrivalPos="39.05"/>
    <trip id="cbd112" depart="448.00" from="316536545#0" to="638928391" type="cbd_passenger" departPos="19.05" arrivalPos="660.46"/>
    <trip id="cbd113" depart="452.00" from="226972108#0" to="-1098770448" type="cbd_passenger" departPos="37.73" arrivalPos="14.65"/>
    <trip id="cbd114" depart="456.00" from="316536545#0" to="-172920274#2" type="cbd_passenger" departPos="7.69" arrivalPos="105.89"/>
    <trip id="cbd115" depart="460.00" from="172920274#0" to="-226972108#3" type="cbd_passenger" departPos="161.38" arrivalPos="43.84"/>
    <trip id="cbd116" depart="464.00" from="36883288#0" to="1308629005" type="cbd_passenger" departPos="153.22" arrivalPos="14.45"/>
    <trip id="cbd117" depart="468.00" from="-1152469184" to="503401202#0" type="cbd_passenger" departPos="11.97" arrivalPos="3.72"/>
    <trip id="cbd118" depart="472.00" from="172920274#0" to="-226972108#3" type="cbd_passenger" departPos="106.76" arrivalPos="32.94"/>
    <trip id="cbd119" depart="476.00" from="52242930#0" to="1148155464" type="cbd_passenger" departPos="85.64" arrivalPos="28.17"/>
    <trip id="cbd120" depart="480.00" from="-1308629005" to="-720099000#1" type="cbd_passenger" departPos="35.54" arrivalPos="103.31"/>
    <trip id="cbd121" depart="484.00" from="1098770448" to="23029705#0" type="cbd_passenger" departPos="17.05" arrivalPos="105.57"/>
    <trip id="cbd122" depart="488.00" from="26807972#0" to="1224538514" type="cbd_passenger" departPos="236.02" arrivalPos="2.17"/>
    <trip id="cbd123" depart="492.00" from="36883288#0" to="23029715#0" type="cbd_passenger" departPos="124.24" arrivalPos="27.35"/>
    <trip id="cbd124" depart="496.00" from="238459130#0" to="1308629005" type="cbd_passenger" departPos="147.24" arrivalPos="15.29"/>
    <trip id="cbd125" depart="500.00" from="52242930#0" to="36913437#0" type="cbd_passenger" departPos="437.02" arrivalPos="8.91"/>
    <trip id="cbd126" depart="504.00" from="52242930#0" to="458439815#2" type="cbd_passenger" departPos="218.24" arrivalPos="13.15"/>
    <trip id="cbd127" depart="508.00" from="26807972#0" to="1152469184" type="cbd_passenger" departPos="144.26" arrivalPos="53.15"/>
    <trip id="cbd128" depart="512.00" from="-1312448642" to="1224538514" type="cbd_passenger" departPos="89.53" arrivalPos="16.99"/>
    <trip id="cbd129" depart="516.00" from="-1184938064" to="1368125926" type="cbd_passenger" departPos="27.83" arrivalPos="110.88"/>
    <trip id="cbd130" depart="520.00" from="1101945530#0" to="1152469184" type="cbd_passenger" departPos="33.52" arrivalPos="60.21"/>
    <trip id="cbd131" depart="524.00" from="-52060801" to="1148406432#13" type="cbd_passenger" departPos="28.69" arrivalPos="10.28"/>
    <trip id="cbd132" depart="528.00" from="766406223#0" to="638928391" type="cbd_passenger" departPos="5.14" arrivalPos="238.95"/>
    <trip id="cbd133" depart="532.00" from="391160974#0" to="1182221973#3" type="cbd_passenger" departPos="12.82" arrivalPos="2.89"/>
    <trip id="cbd134" depart="536.00" from="107215088#0" to="-720099000#1" type="cbd_passenger" departPos="5.72" arrivalPos="62.73"/>
    <trip id="cbd135" depart="540.00" from="-1152469184" to="23029715#0" type="cbd_passenger" departPos="87.38" arrivalPos="39.11"/>
    <trip id="cbd136" depart="544.00" from="766406223#0" to="1184938064" type="cbd_passenger" departPos="32.44" arrivalPos="12.01"/>
    <trip id="cbd137" depart="548.00" from="1096795626" to="358318632#1" type="cbd_passenger" departPos="29.85" arrivalPos="90.90"/>
    <trip id="cbd138" depart="552.00" from="36913438#0" to="-172920274#2" type="cbd_passenger" departPos="10.92" arrivalPos="30.65"/>
    <trip id="cbd139" depart="556.00" from="766406223#0" to="362900185" type="cbd_passenger" departPos="24.85" arrivalPos="39.85"/>
    <trip id="cbd140" depart="560.00" from="-1224538514" to="52246044#9" type="cbd_passenger" departPos="27.16" arrivalPos="77.44"/>
    <trip id="cbd141" depart="564.00" from="-1152469184" to="-316536545#0" type="cbd_passenger" departPos="50.24" arrivalPos="13.41"/>
    <trip id="cbd142" depart="568.00" from="26807972#0" to="-1098770448" type="cbd_passenger" departPos="36.40" arrivalPos="2.66"/>
    <trip id="cbd143" depart="572.00" from="1101945530#0" to="1096187527#0" type="cbd_passenger" departPos="11.18" arrivalPos="24.20"/>
    <trip id="cbd144" depart="576.00" from="36883288#0" to="23029715#0" type="cbd_passenger" departPos="25.02" arrivalPos="91.46"/>
    <trip id="cbd145" depart="580.00" from="226972108#0" to="-316536545#0" type="cbd_passenger" departPos="44.71" arrivalPos="17.73"/>
    <trip id="cbd146" depart="584.00" from="107215088#0" to="1184938064" type="cbd_passenger" departPos="7.74" arrivalPos="33.94"/>
    <trip id="cbd147" depart="588.00" from="36883288#0" to="-226972108#3" type="cbd_passenger" departPos="111.01" arrivalPos="13.02"/>
    <trip id="cbd148" depart="592.00" from="316536545#0" to="458439815#2" type="cbd_passenger" departPos="25.38" arrivalPos="205.68"/>
    <trip id="cbd149" depart="596.00" from="-1152469184" to="-720099000#1" type="cbd_passenger" departPos="24.58" arrivalPos="10.15"/>
    <trip id="cbd150" depart="600.00" from="1238638853" to="36913437#0" type="cbd_passenger" departPos="27.26" arrivalPos="284.63"/>
    <trip id="cbd151" depart="604.00" from="391160974#0" to="458439815#2" type="cbd_passenger" departPos="6.27" arrivalPos="4.28"/>
    <trip id="cbd152" depart="608.00" from="107215088#0" to="1148406432#13" type="cbd_passenger" departPos="3.30" arrivalPos="6.91"/>
    <trip id="cbd153" depart="612.00" from="1238638853" to="1096187527#0" type="cbd_passenger" departPos="47.17" arrivalPos="26.21"/>
    <trip id="cbd154" depart="616.00" from="1101945530#0" to="1184938064" type="cbd_passenger" departPos="34.63" arrivalPos="48.18"/>
    <trip id="cbd155" depart="620.00" from="391160931#0" to="362900185" type="cbd_passenger" departPos="0.11" arrivalPos="99.71"/>
    <trip id="cbd156" depart="624.00" from="226972108#0" to="1308629005" type="cbd_passenger" departPos="53.17" arrivalPos="40.43"/>
    <trip id="cbd157" depart="628.00" from="-1224538514" to="503401202#0" type="cbd_passenger" departPos="1.49" arrivalPos="441.45"/>
    <trip id="cbd158" depart="632.00" from="107215088#0" to="-720099000#1" type="cbd_passenger" departPos="0.19" arrivalPos="86.55"/>
    <trip id="cbd159" depart="636.00" from="-1308629005" to="1182221973#3" type="cbd_passenger" departPos="27.58" arrivalPos="2.22"/>
    <trip id="cbd160" depart="640.00" from="316536545#0" to="161416660#3" type="cbd_passenger" departPos="3.23" arrivalPos="7.89"/>
    <trip id="cbd161" depart="644.00" from="-52060801" to="23029705#0" type="cbd_passenger" departPos="85.46" arrivalPos="101.46"/>
    <trip id="cbd162" depart="648.00" from="1091198034#0" to="638928391" type="cbd_passenger" departPos="294.76" arrivalPos="704.45"/>
    <trip id="cbd163" depart="652.00" from="316536545#0" to="638928391" type="cbd_passenger" departPos="23.39" arrivalPos="614.39"/>
    <trip id="cbd164" depart="656.00" from="1205171800#0" to="161416660#3" type="cbd_passenger" departPos="1.80" arrivalPos="5.47"/>
    <trip id="cbd165" depart="660.00" from="-1312448642" to="638928391" type="cbd_passenger" departPos="254.53" arrivalPos="565.15"/>
    <trip id="cbd166" depart="664.00" from="107215088#0" to="1308629005" type="cbd_passenger" departPos="4.92" arrivalPos="27.95"/>
    <trip id="cbd167" depart="668.00" from="-1039008728" to="36913437#0" type="cbd_passenger" departPos="73.64" arrivalPos="54.84"/>
    <trip id="cbd168" depart="672.00" from="-23029715#2" to="1096187536#1" type="cbd_passenger" departPos="44.71" arrivalPos="33.63"/>
    <trip id="cbd169" depart="676.00" from="36913438#0" to="503401202#0" type="cbd_passenger" departPos="25.38" arrivalPos="493.45"/>
    <trip id="cbd170" depart="680.00" from="1054230460#0" to="52246044#9" type="cbd_passenger" departPos="113.41" arrivalPos="60.93"/>
    <trip id="cbd171" depart="684.00" from="160558221#0" to="23029705#0" type="cbd_passenger" departPos="18.38" arrivalPos="68.23"/>
    <trip id="cbd172" depart="688.00" from="-1312448642" to="23029715#0" type="cbd_passenger" departPos="130.22" arrivalPos="171.36"/>
    <trip id="cbd173" depart="692.00" from="1101945530#0" to="36913437#0" type="cbd_passenger" departPos="18.89" arrivalPos="294.94"/>
    <trip id="cbd174" depart="696.00" from="1101945530#0" to="1152469184" type="cbd_passenger" departPos="6.91" arrivalPos="35.22"/>
    <trip id="cbd175" depart="700.00" from="36883288#0" to="-172920274#2" type="cbd_passenger" departPos="47.46" arrivalPos="58.41"/>
    <trip id="cbd176" depart="704.00" from="52242930#0" to="23029705#0" type="cbd_passenger" departPos="164.85" arrivalPos="122.87"/>
    <trip id="cbd177" depart="708.00" from="26807972#0" to="45444030#1" type="cbd_passenger" departPos="227.01" arrivalPos="151.39"/>
    <trip id="cbd178" depart="712.00" from="1101945530#0" to="-172920274#2" type="cbd_passenger" departPos="0.69" arrivalPos="165.20"/>
    <trip id="cbd179" depart="716.00" from="-1224538514" to="358318632#1" type="cbd_passenger" departPos="15.01" arrivalPos="10.49"/>
    <trip id="cbd180" depart="720.00" from="-1308629005" to="458439815#2" type="cbd_passenger" departPos="11.51" arrivalPos="123.27"/>
    <trip id="cbd181" depart="724.00" from="-1224538514" to="23029715#0" type="cbd_passenger" departPos="19.26" arrivalPos="152.28"/>
    <trip id="cbd182" depart="728.00" from="-1184938064" to="-226972108#3" type="cbd_passenger" departPos="36.07" arrivalPos="25.31"/>
    <trip id="cbd183" depart="732.00" from="-1224538514" to="503401202#0" type="cbd_passenger" departPos="25.58" arrivalPos="347.90"/>
    <trip id="cbd184" depart="736.00" from="-1152469184" to="1308629005" type="cbd_passenger" departPos="13.59" arrivalPos="40.07"/>
    <trip id="cbd185" depart="740.00" from="-1096187527#1" to="1152469184" type="cbd_passenger" departPos="21.44" arrivalPos="42.71"/>
    <trip id="cbd186" depart="744.00" from="1238638853" to="-226972108#3" type="cbd_passenger" departPos="15.76" arrivalPos="42.55"/>
    <trip id="cbd187" depart="748.00" from="52242930#0" to="458439815#2" type="cbd_passenger" departPos="376.33" arrivalPos="121.08"/>
    <trip id="cbd188" depart="752.00" from="-23029715#2" to="362900185" type="cbd_passenger" departPos="64.46" arrivalPos="140.79"/>
    <trip id="cbd189" depart="756.00" from="1091198034#0" to="52246044#9" type="cbd_passenger" departPos="107.65" arrivalPos="15.45"/>
    <trip id="cbd190" depart="760.00" from="238459130#0" to="-720099000#1" type="cbd_passenger" departPos="147.88" arrivalPos="10.68"/>
    <trip id="cbd191" depart="764.00" from="1101945530#0" to="23029715#0" type="cbd_passenger" departPos="12.40" arrivalPos="122.21"/>
    <trip id="cbd192" depart="768.00" from="36970838#0" to="-1098770448" type="cbd_passenger" departPos="65.77" arrivalPos="11.82"/>
    <trip id="cbd193" depart="772.00" from="36883288#0" to="358318632#1" type="cbd_passenger" departPos="156.83" arrivalPos="126.38"/>
    <trip id="cbd194" depart="776.00" from="172920274#0" to="362900185" type="cbd_passenger" departPos="122.48" arrivalPos="265.75"/>
    <trip id="cbd195" depart="780.00" from="316536545#0" to="358318632#1" type="cbd_passenger" departPos="20.85" arrivalPos="23.06"/>
    <trip id="cbd196" depart="784.00" from="-1224538514" to="1096187536#1" type="cbd_passenger" departPos="5.09" arrivalPos="19.92"/>
    <trip id="cbd197" depart="788.00" from="26807972#0" to="23029715#0" type="cbd_passenger" departPos="341.53" arrivalPos="127.87"/>
    <trip id="cbd198" depart="792.00" from="160558221#0" to="1148155463" type="cbd_passenger" departPos="5.36" arrivalPos="4.91"/>
    <trip id="cbd199" depart="796.00" from="172920274#0" to="458439815#2" type="cbd_passenger" departPos="38.05" arrivalPos="181.07"/>
    <trip id="cbd200" depart="800.00" from="766406223#0" to="1148155464" type="cbd_passenger" departPos="20.80" arrivalPos="29.66"/>
    <trip id="cbd201" depart="804.00" from="107215088#0" to="23029705#0" type="cbd_passenger" departPos="4.44" arrivalPos="104.32"/>
    <trip id="cbd202" depart="808.00" from="-1096187527#1" to="1148155464" type="cbd_passenger" departPos="35.67" arrivalPos="37.83"/>
    <trip id="cbd203" depart="812.00" from="52242930#0" to="1096187527#0" type="cbd_passenger" departPos="4.51" arrivalPos="12.67"/>
    <trip id="cbd204" depart="816.00" from="-1096187527#1" to="638928391" type="cbd_passenger" departPos="34.87" arrivalPos="221.89"/>
    <trip id="cbd205" depart="820.00" from="766406223#0" to="1096187536#1" type="cbd_passenger" departPos="19.10" arrivalPos="52.52"/>
    <trip id="cbd206" depart="824.00" from="1091198034#0" to="638928391" type="cbd_passenger" departPos="195.11" arrivalPos="118.49"/>
    <trip id="cbd207" depart="828.00" from="391160974#0" to="1148406432#13" type="cbd_passenger" departPos="25.09" arrivalPos="32.85"/>
    <trip id="cbd208" depart="832.00" from="-52060801" to="-316536545#0" type="cbd_passenger" departPos="85.87" arrivalPos="23.02"/>
    <trip id="cbd209" depart="836.00" from="1091198034#0" to="-720099000#1" type="cbd_passenger" departPos="80.25" arrivalPos="52.76"/>
    <trip id="cbd210" depart="840.00" from="1091198034#0" to="503401202#0" type="cbd_passenger" departPos="120.72" arrivalPos="545.50"/>
    <trip id="cbd211" depart="844.00" from="316536545#0" to="358318632#1" type="cbd_passenger" departPos="16.40" arrivalPos="139.32"/>
    <trip id="cbd212" depart="848.00" from="1096795626" to="1184938064" type="cbd_passenger" departPos="21.11" arrivalPos="17.69"/>
    <trip id="cbd213" depart="852.00" from="-52060801" to="1148155464" type="cbd_passenger" departPos="13.31" arrivalPos="13.31"/>
    <trip id="cbd214" depart="856.00" from="172920274#0" to="458439815#2" type="cbd_passenger" departPos="116.33" arrivalPos="69.74"/>
    <trip id="cbd215" depart="860.00" from="36883288#0" to="1152469184" type="cbd_passenger" departPos="29.23" arrivalPos="63.20"/>
    <trip id="cbd216" depart="864.00" from="-1152469184" to="161416660#3" type="cbd_passenger" departPos="97.47" arrivalPos="3.67"/>
    <trip id="cbd217" depart="868.00" from="391160974#0" to="1096187536#1" type="cbd_passenger" departPos="9.49" arrivalPos="19.81"/>