<?xml version="1.0" encoding="UTF-8"?>

<!-- generated on 2026-04-29T19:44:28.797908+05:30 by Eclipse SUMO netconvert 1.26.0
<netconvertConfiguration xmlns:xsi="http://www.w3.org/2001/XMLSchema-instance" xsi:noNamespaceSchemaLocation="http://sumo.dlr.de/xsd/netconvertConfiguration.xsd">

    <input>
        <osm-files value="bengaluru_cbd.osm.xml"/>
    </input>

    <output>
        <output-file value="bengaluru_cbd.net.xml"/>
    </output>

    <projection>
        <proj.utm value="true"/>
    </projection>

    <processing>
        <geometry.remove value="true"/>
    </processing>

    <tls_building>
        <tls.guess value="true"/>
        <tls.join value="true"/>
    </tls_building>

    <edge_removal>
        <keep-edges.by-vclass value="passenger"/>
    </edge_removal>

    <junctions>
        <junctions.join value="true"/>
    </junctions>

    <pedestrian>
        <sidewalks.guess value="true"/>
        <crossings.guess value="true"/>
    </pedestrian>

</netconvertConfiguration>
-->

<net version="1.20" junctionCornerDetail="5" walkingareas="true" limitTurnSpeed="5.50" xmlns:xsi="http://www.w3.org/2001/XMLSchema-instance" xsi:noNamespaceSchemaLocation="http://sumo.dlr.de/xsd/net_file.xsd">

    <location netOffset="-780057.96,-1435071.11" convBoundary="0.00,0.00,2259.94,2049.95" origBoundary="77.578203,12.857993,77.783066,13.041487" projParameter="+proj=utm +zone=43 +ellps=WGS84 +datum=WGS84 +units=m +no_defs"/>

    <type id="highway.living_street" priority="2" numLanes="1" speed="2.78" disallow="tram rail_urban rail rail_electric rail_fast ship container cable_car subway aircraft wheelchair scooter drone" oneway="0"/>
    <type id="highway.primary" priority="12" numLanes="2" speed="27.78" disallow="tram rail_urban rail rail_electric rail_fast ship container cable_car subway aircraft wheelchair scooter drone" oneway="0"/>
    <type id="highway.primary_link" priority="7" numLanes="1" speed="22.22" disallow="tram rail_urban rail rail_electric rail_fast ship container cable_car subway aircraft wheelchair scooter drone" oneway="0"/>
    <type id="highway.residential" priority="3" numLanes="1" speed="13.89" disallow="tram rail_urban rail rail_electric rail_fast ship container cable_car subway aircraft wheelchair scooter drone" oneway="0"/>
    <type id="highway.secondary" priority="11" numLanes="1" speed="27.78" disallow="tram rail_urban rail rail_electric rail_fast ship container cable_car subway aircraft wheelchair scooter drone" oneway="0"/>
    <type id="highway.secondary_link" priority="6" numLanes="1" speed="22.22" disallow="tram rail_urban rail rail_electric rail_fast ship container cable_car subway aircraft wheelchair scooter drone" oneway="0"/>
    <type id="highway.tertiary" priority="10" numLanes="1" speed="22.22" disallow="tram rail_urban rail rail_electric rail_fast ship container cable_car subway aircraft wheelchair scooter drone" oneway="0"/>
    <type id="highway.tertiary_link" priority="5" numLanes="1" speed="22.22" disallow="tram rail_urban rail rail_electric rail_fast ship container cable_car subway aircraft wheelchair scooter drone" oneway="0"/>
    <type id="highway.unclassified" priority="4" numLanes="1" speed="13.89" disallow="tram rail_urban rail rail_electric rail_fast ship container cable_car subway aircraft wheelchair scooter drone" oneway="0"/>

    <edge id=":10016225540_0" function="internal">
        <lane id=":10016225540_0_0" index="0" disallow="tram rail_urban rail rail_electric rail_fast ship container cable_car subway aircraft wheelchair scooter drone" speed="9.26" length="9.52" shape="1094.82,1669.24 1096.47,1667.21 1097.56,1665.10 1098.10,1662.91 1098.07,1660.64"/>
    </edge>
    <edge id=":10016225540_1" function="internal">
        <lane id=":10016225540_1_0" index="0" disallow="tram rail_urban rail rail_electric rail_fast ship container cable_car subway aircraft wheelchair scooter drone" speed="27.78" length="9.91" shape="1094.82,1669.24 1102.08,1662.29"/>
        <lane id=":10016225540_1_1" index="1" disallow="tram rail_urban rail rail_electric rail_fast ship container cable_car subway aircraft wheelchair scooter drone" speed="27.78" length="9.91" shape="1097.11,1671.47 1104.27,1664.62"/>
        <lane id=":10016225540_1_2" index="2" disallow="tram rail_urban rail rail_electric rail_fast ship container cable_car subway aircraft wheelchair scooter drone" speed="27.78" length="9.91" shape="1099.40,1673.70 1106.47,1666.95"/>
    </edge>
    <edge id=":10016225540_w0" function="walkingarea">
        <lane id=":10016225540_w0_0" index="0" allow="pedestrian" speed="2.78" length="7.86" width="3.20" shape="1107.56,1668.11 1100.98,1661.13 1100.35,1661.53 1100.11,1661.51 1099.91,1661.35 1099.77,1661.05 1099.68,1660.60 1096.46,1660.68 1096.39,1663.30 1096.03,1664.56 1095.46,1665.78 1094.67,1666.97 1093.67,1668.13 1100.55,1674.82"/>
    </edge>
    <edge id=":10016225595_0" function="internal">
        <lane id=":10016225595_0_0" index="0" disallow="tram rail_urban rail rail_electric rail_fast ship container cable_car subway aircraft wheelchair scooter drone" speed="27.78" length="4.34" shape="1413.05,1476.25 1416.00,1479.39"/>
        <lane id=":10016225595_0_1" index="1" disallow="tram rail_urban rail rail_electric rail_fast ship container cable_car subway aircraft wheelchair scooter drone" speed="27.78" length="4.34" shape="1415.37,1474.05 1418.34,1477.21"/>
        <lane id=":10016225595_0_2" index="2" disallow="tram rail_urban rail rail_electric rail_fast ship container cable_car subway aircraft wheelchair scooter drone" speed="27.78" length="4.34" shape="1417.69,1471.85 1420.68,1475.03"/>
    </edge>
    <edge id=":10016225595_w0" function="walkingarea">
        <lane id=":10016225595_w0_0" index="0" allow="pedestrian" speed="2.78" length="4.32" width="3.20" shape="1415.04,1480.71 1422.04,1474.15 1421.85,1473.94 1414.83,1480.48"/>
    </edge>
    <edge id=":10036422031_0" function="internal">
        <lane id=":10036422031_0_0" index="0" disallow="tram rail_urban rail rail_electric rail_fast ship container cable_car subway aircraft wheelchair scooter drone" speed="5.12" length="6.56" shape="552.33,1463.00 551.72,1463.48 551.72,1464.62 552.33,1466.41 553.56,1468.87"/>
    </edge>
    <edge id=":10036422031_1" function="internal">
        <lane id=":10036422031_1_0" index="0" disallow="tram rail_urban rail rail_electric rail_fast ship container cable_car subway aircraft wheelchair scooter drone" speed="3.72" length="4.85" shape="552.33,1463.00 550.99,1462.34 550.47,1461.57 550.77,1460.69 551.90,1459.71"/>
    </edge>
    <edge id=":10036422031_2" function="internal">
        <lane id=":10036422031_2_0" index="0" disallow="tram rail_urban rail rail_electric rail_fast ship container cable_car subway aircraft wheelchair scooter drone" speed="7.45" length="7.98" shape="545.24,1456.16 546.58,1457.88 548.14,1459.04 549.91,1459.65 551.90,1459.71"/>
    </edge>
    <edge id=":10036422031_3" function="internal">
        <lane id=":10036422031_3_0" index="0" disallow="tram rail_urban rail rail_electric rail_fast ship container cable_car subway aircraft wheelchair scooter drone" speed="27.78" length="15.30" shape="545.24,1456.16 553.56,1468.87"/>
        <lane id=":10036422031_3_1" index="1" disallow="tram rail_urban rail rail_electric rail_fast ship container cable_car subway aircraft wheelchair scooter drone" speed="27.78" length="15.30" shape="542.52,1457.85 550.95,1470.76"/>
    </edge>
    <edge id=":10036422031_w0" function="walkingarea">
        <lane id=":10036422031_w0_0" index="0" allow="pedestrian" speed="2.78" length="8.54" width="6.40" shape="549.64,1471.70 554.87,1467.93 554.22,1465.94 554.36,1465.20 554.83,1464.64 555.61,1464.24 556.70,1464.03 555.68,1457.70 553.45,1457.84 551.50,1457.77 549.84,1457.48 548.47,1456.98 547.39,1456.26 546.60,1455.32 541.16,1458.69"/>
    </edge>
    <edge id=":10038553695_0" function="internal">
        <lane id=":10038553695_0_0" index="0" disallow="tram rail_urban rail rail_electric rail_fast ship container cable_car subway aircraft wheelchair scooter drone" speed="27.78" length="8.21" shape="731.35,885.36 733.58,886.30 735.25,886.59 736.91,886.88 739.14,887.81"/>
        <lane id=":10038553695_0_1" index="1" disallow="tram rail_urban rail rail_electric rail_fast ship container cable_car subway aircraft wheelchair scooter drone" speed="27.78" length="8.21" shape="729.81,888.17 732.03,889.10 733.70,889.39 735.37,889.68 737.59,890.62"/>
    </edge>
    <edge id=":10038553695_w0" function="walkingarea">
        <lane id=":10038553695_w0_0" index="0" allow="pedestrian" speed="2.78" length="8.16" width="3.20" shape="736.82,892.02 739.91,886.41 737.49,884.61 736.79,883.78 736.08,882.96 735.12,882.09 733.67,881.16 729.04,889.57 731.85,890.64 732.93,890.80 734.01,890.95 735.25,891.29"/>
    </edge>
    <edge id=":10038561218_0" function="internal">
        <lane id=":10038561218_0_0" index="0" disallow="tram rail_urban rail rail_electric rail_fast ship container cable_car subway aircraft wheelchair scooter drone" speed="22.22" length="14.45" shape="708.36,1032.87 701.74,1045.71"/>
    </edge>
    <edge id=":10038561218_1" function="internal">
        <lane id=":10038561218_1_0" index="0" disallow="pedestrian tram rail_urban rail rail_electric rail_fast ship container cable_car subway aircraft wheelchair scooter drone" speed="7.93" length="4.21" shape="708.36,1032.87 706.27,1035.96 705.88,1036.25"/>
    </edge>
    <edge id=":10038561218_2" function="internal">
        <lane id=":10038561218_2_0" index="0" disallow="tram rail_urban rail rail_electric rail_fast ship container cable_car subway aircraft wheelchair scooter drone" speed="3.65" length="1.44" shape="708.36,1032.87 707.10,1033.57"/>
    </edge>
    <edge id=":10038561218_9" function="internal">
        <lane id=":10038561218_9_0" index="0" disallow="pedestrian tram rail_urban rail rail_electric rail_fast ship container cable_car subway aircraft wheelchair scooter drone" speed="7.93" length="8.66" shape="705.88,1036.25 703.82,1037.78 701.02,1038.35 697.86,1037.65"/>
    </edge>
    <edge id=":10038561218_10" function="internal">
        <lane id=":10038561218_10_0" index="0" disallow="tram rail_urban rail rail_electric rail_fast ship container cable_car subway aircraft wheelchair scooter drone" speed="3.65" length="3.23" shape="707.10,1033.57 706.21,1033.56 705.68,1032.84 705.52,1031.40"/>
    </edge>
    <edge id=":10038561218_3" function="internal">
        <lane id=":10038561218_3_0" index="0" disallow="pedestrian tram rail_urban rail rail_electric rail_fast ship container cable_car subway aircraft wheelchair scooter drone" speed="6.41" length="8.07" shape="699.05,1034.68 700.94,1035.06 702.65,1034.65 704.17,1033.43 705.52,1031.40"/>
    </edge>
    <edge id=":10038561218_4" function="internal">
        <lane id=":10038561218_4_0" index="0" disallow="pedestrian tram rail_urban rail rail_electric rail_fast ship container cable_car subway aircraft wheelchair scooter drone" speed="7.49" length="13.20" shape="699.05,1034.68 701.82,1036.40 703.20,1038.82 703.17,1041.92 701.74,1045.71"/>
    </edge>
    <edge id=":10038561218_5" function="internal">
        <lane id=":10038561218_5_0" index="0" disallow="pedestrian tram rail_urban rail rail_electric rail_fast ship container cable_car subway aircraft wheelchair scooter drone" speed="3.65" length="4.67" shape="699.05,1034.68 699.86,1035.86 699.94,1036.75 699.27,1037.35 697.86,1037.65"/>
    </edge>
    <edge id=":10038561218_6" function="internal">
        <lane id=":10038561218_6_0" index="0" disallow="pedestrian tram rail_urban rail rail_electric rail_fast ship container cable_car subway aircraft wheelchair scooter drone" speed="5.87" length="7.69" shape="698.89,1044.24 699.82,1041.91 699.96,1040.03 699.31,1038.61 697.86,1037.65"/>
    </edge>
    <edge id=":10038561218_7" function="internal">
        <lane id=":10038561218_7_0" index="0" disallow="tram rail_urban rail rail_electric rail_fast ship container cable_car subway aircraft wheelchair scooter drone" speed="22.22" length="14.45" shape="698.89,1044.24 705.52,1031.40"/>
    </edge>
    <edge id=":10038561218_8" function="internal">
        <lane id=":10038561218_8_0" index="0" disallow="tram rail_urban rail rail_electric rail_fast ship container cable_car subway aircraft wheelchair scooter drone" speed="3.65" length="1.44" shape="698.89,1044.24 700.15,1043.54"/>
    </edge>
    <edge id=":10038561218_11" function="internal">
        <lane id=":10038561218_11_0" index="0" disallow="tram rail_urban rail rail_electric rail_fast ship container cable_car subway aircraft wheelchair scooter drone" speed="3.65" length="3.23" shape="700.15,1043.54 701.05,1043.56 701.57,1044.28 701.74,1045.71"/>
    </edge>
    <edge id=":10038561218_w0" function="walkingarea">
        <lane id=":10038561218_w0_0" index="0" allow="pedestrian" speed="2.78" length="10.04" width="3.20" shape="697.27,1039.13 696.53,1040.99 697.47,1043.51 700.31,1044.98 703.16,1046.45 709.78,1033.60 706.94,1032.14 704.10,1030.67 700.38,1031.33 699.64,1033.19"/>
    </edge>
    <edge id=":10038561219_0" function="internal">
        <lane id=":10038561219_0_0" index="0" disallow="pedestrian tram rail_urban rail rail_electric rail_fast ship container cable_car subway aircraft wheelchair scooter drone" speed="3.65" length="4.67" shape="662.50,1023.56 661.68,1022.37 661.60,1021.48 662.27,1020.88 663.68,1020.58"/>
    </edge>
    <edge id=":10038561219_w0" function="walkingarea">
        <lane id=":10038561219_w0_0" index="0" allow="pedestrian" speed="2.78" length="8.40" width="2.00" shape="664.27,1019.10 665.01,1017.24 661.17,1026.90 661.91,1025.04"/>
    </edge>
    <edge id=":10038561243_0" function="internal">
        <lane id=":10038561243_0_0" index="0" disallow="tram rail_urban rail rail_electric rail_fast ship container cable_car subway aircraft wheelchair scooter drone" speed="2.78" length="4.67" shape="1766.23,518.86 1765.54,520.13 1764.78,520.59 1763.95,520.27 1763.05,519.14"/>
    </edge>
    <edge id=":10043344517_0" function="internal">
        <lane id=":10043344517_0_0" index="0" disallow="pedestrian tram rail_urban rail rail_electric rail_fast ship container cable_car subway aircraft wheelchair scooter drone" speed="3.65" length="4.67" shape="1993.73,1403.25 1993.32,1404.63 1992.67,1405.25 1991.79,1405.10 1990.67,1404.19"/>
    </edge>
    <edge id=":10043344517_w0" function="walkingarea">
        <lane id=":10043344517_w0_0" index="0" allow="pedestrian" speed="2.78" length="8.40" width="2.00" shape="1989.14,1404.66 1987.23,1405.25 1997.17,1402.19 1995.26,1402.78"/>
    </edge>
    <edge id=":10060517425_0" function="internal">
        <lane id=":10060517425_0_0" index="0" disallow="tram rail_urban rail rail_electric rail_fast ship container cable_car subway aircraft wheelchair scooter drone" speed="2.78" length="4.67" shape="1730.57,460.14 1729.30,459.45 1728.84,458.69 1729.17,457.86 1730.29,456.96"/>
    </edge>
    <edge id=":10075533192_w0" function="walkingarea">
        <lane id=":10075533192_w0_0" index="0" allow="pedestrian" speed="2.78" length="0.10" width="3.20" shape="2258.93,1202.68 2260.95,1208.76"/>
    </edge>
    <edge id=":10083741121_w0" function="walkingarea">
        <lane id=":10083741121_w0_0" index="0" allow="pedestrian" speed="2.78" length="10.24" width="3.20" shape="1995.33,906.03 1993.56,908.72 1993.32,909.58 1993.65,919.17 1999.37,918.61 2002.91,917.39 2004.28,915.53 2003.47,913.01 2000.49,909.85"/>
    </edge>
    <edge id=":10083741123_0" function="internal">
        <lane id=":10083741123_0_0" index="0" disallow="tram rail_urban rail rail_electric rail_fast ship container cable_car subway aircraft wheelchair scooter drone" speed="22.22" length="0.10" shape="1948.74,908.98 1948.68,908.93"/>
    </edge>
    <edge id=":10086459889_0" function="internal">
        <lane id=":10086459889_0_0" index="0" disallow="tram rail_urban rail rail_electric rail_fast ship container cable_car subway aircraft wheelchair scooter drone" speed="27.78" length="0.30" shape="676.16,1765.68 676.44,1765.78"/>
    </edge>
    <edge id=":10121158732_w0" function="walkingarea">
        <lane id=":10121158732_w0_0" index="0" allow="pedestrian" speed="2.78" length="9.86" width="3.20" shape="869.63,1940.93 863.14,1933.78 862.46,1934.29 862.12,1934.36 861.77,1934.32 861.41,1934.15 861.05,1933.87 854.46,1940.85 857.18,1943.02 859.81,1944.32 862.38,1944.76 864.87,1944.35 867.29,1943.07"/>
    </edge>
    <edge id=":10123826914_0" function="internal">
        <lane id=":10123826914_0_0" index="0" disallow="pedestrian tram rail_urban rail rail_electric rail_fast ship container cable_car subway aircraft wheelchair scooter drone" speed="13.89" length="0.21" shape="1018.13,1010.87 1017.97,1011.01"/>
    </edge>
    <edge id=":10123826914_w0" function="walkingarea">
        <lane id=":10123826914_w0_0" index="0" allow="pedestrian" speed="2.78" length="0.30" width="2.00" shape="1019.01,1012.23 1020.31,1013.75 1020.56,1013.53 1019.21,1012.05"/>
    </edge>
    <edge id=":10719419559_0" function="internal">
        <lane id=":10719419559_0_0" index="0" disallow="pedestrian tram rail_urban rail rail_electric rail_fast ship container cable_car subway aircraft wheelchair scooter drone" speed="6.39" length="12.44" shape="1904.13,1765.65 1903.54,1762.62 1904.61,1760.76 1907.32,1760.05 1911.69,1760.49"/>
    </edge>
    <edge id=":10719419559_1" function="internal">
        <lane id=":10719419559_1_0" index="0" disallow="pedestrian tram rail_urban rail rail_electric rail_fast ship container cable_car subway aircraft wheelchair scooter drone" speed="3.65" length="4.67" shape="1904.13,1765.65 1904.44,1764.24 1905.04,1763.58 1905.93,1763.66 1907.11,1764.48"/>
    </edge>
    <edge id=":10719419559_2" function="internal">
        <lane id=":10719419559_2_0" index="0" disallow="tram rail_urban rail rail_electric rail_fast ship container cable_car subway aircraft wheelchair scooter drone" speed="22.22" length="15.34" shape="1897.26,1754.38 1912.31,1757.35"/>
        <lane id=":10719419559_2_1" index="1" disallow="tram rail_urban rail rail_electric rail_fast ship container cable_car subway aircraft wheelchair scooter drone" speed="22.22" length="15.34" shape="1896.64,1757.52 1911.69,1760.49"/>
    </edge>
    <edge id=":10719419559_4" function="internal">
        <lane id=":10719419559_4_0" index="0" disallow="pedestrian tram rail_urban rail rail_electric rail_fast ship container cable_car subway aircraft wheelchair scooter drone" speed="10.09" length="13.10" shape="1896.64,1757.52 1900.44,1758.58 1903.45,1760.09 1905.67,1762.06 1907.11,1764.48"/>
    </edge>
    <edge id=":10719419559_w0" function="walkingarea">
        <lane id=":10719419559_w0_0" index="0" allow="pedestrian" speed="2.78" length="12.15" width="3.20" shape="1908.60,1763.90 1910.46,1763.17 1911.38,1762.06 1912.00,1758.92 1912.62,1755.78 1897.57,1752.81 1896.95,1755.95 1896.33,1759.09 1900.78,1766.97 1902.64,1766.24"/>
    </edge>
    <edge id=":10978687876_0" function="internal">
        <lane id=":10978687876_0_0" index="0" disallow="tram rail_urban rail rail_electric rail_fast ship container cable_car subway aircraft wheelchair scooter drone" speed="5.50" length="8.09" shape="660.25,838.40 659.24,839.69 659.41,841.10 660.75,842.62 663.26,844.27"/>
    </edge>
    <edge id=":10978687876_1" function="internal">
        <lane id=":10978687876_1_0" index="0" disallow="tram rail_urban rail rail_electric rail_fast ship container cable_car subway aircraft wheelchair scooter drone" speed="27.78" length="10.97" shape="652.66,840.33 655.83,841.47 658.07,842.08 660.25,842.81 663.26,844.27"/>
        <lane id=":10978687876_1_1" index="1" disallow="tram rail_urban rail rail_electric rail_fast ship container cable_car subway aircraft wheelchair scooter drone" speed="27.78" length="10.97" shape="651.45,843.29 654.52,844.39 656.69,844.97 658.80,845.66 661.72,847.07"/>
        <lane id=":10978687876_1_2" index="2" disallow="tram rail_urban rail rail_electric rail_fast ship container cable_car subway aircraft wheelchair scooter drone" speed="27.78" length="10.97" shape="650.24,846.26 653.20,847.31 655.30,847.86 657.36,848.52 660.18,849.88"/>
    </edge>
    <edge id=":10978687876_w0" function="walkingarea">
        <lane id=":10978687876_w0_0" index="0" allow="pedestrian" speed="2.78" length="8.58" width="3.20" shape="659.41,851.28 664.03,842.87 666.28,842.05 658.79,837.51 656.81,838.70 655.88,839.02 654.97,839.15 654.10,839.09 653.27,838.85 649.63,847.74 651.71,848.51 653.29,848.97 654.61,849.31 655.92,849.69 657.43,850.29"/>
    </edge>
    <edge id=":10978687901_0" function="internal">
        <lane id=":10978687901_0_0" index="0" disallow="tram rail_urban rail rail_electric rail_fast ship container cable_car subway aircraft wheelchair scooter drone" speed="27.78" length="0.87" shape="661.02,826.72 660.93,826.64 660.86,826.58 660.79,826.53 660.67,826.47"/>
        <lane id=":10978687901_0_1" index="1" disallow="tram rail_urban rail rail_electric rail_fast ship container cable_car subway aircraft wheelchair scooter drone" speed="27.78" length="0.87" shape="663.25,824.42 662.97,824.16 662.76,823.99 662.54,823.84 662.20,823.66"/>
    </edge>
    <edge id=":10978687901_w0" function="walkingarea">
        <lane id=":10978687901_w0_0" index="0" allow="pedestrian" speed="2.78" length="0.43" width="3.20" shape="659.91,827.87 664.36,823.27 663.89,822.83 663.71,822.69 663.52,822.56 663.29,822.43 662.96,822.25 659.91,827.87"/>
    </edge>
    <edge id=":10980051591_0" function="internal">
        <lane id=":10980051591_0_0" index="0" disallow="tram rail_urban rail rail_electric rail_fast ship container cable_car subway aircraft wheelchair scooter drone" speed="10.98" length="17.10" shape="628.37,837.90 632.10,836.26 635.10,833.76 637.35,830.38 638.87,826.13"/>
        <lane id=":10980051591_0_1" index="1" disallow="tram rail_urban rail rail_electric rail_fast ship container cable_car subway aircraft wheelchair scooter drone" speed="15.07" length="17.10" shape="630.34,840.61 634.72,837.68 637.83,835.51 640.04,832.74 641.71,827.99"/>
    </edge>
    <edge id=":10980051591_2" function="internal">
        <lane id=":10980051591_2_0" index="0" disallow="tram rail_urban rail rail_electric rail_fast ship container cable_car subway aircraft wheelchair scooter drone" speed="9.65" length="14.81" shape="630.34,840.61 634.80,837.65 638.51,835.86 641.49,835.24 643.72,835.79"/>
        <lane id=":10980051591_2_1" index="1" disallow="tram rail_urban rail rail_electric rail_fast ship container cable_car subway aircraft wheelchair scooter drone" speed="8.95" length="12.63" shape="630.34,840.61 633.65,838.59 636.70,837.57 639.51,837.55 642.05,838.52"/>
        <lane id=":10980051591_2_2" index="2" disallow="tram rail_urban rail rail_electric rail_fast ship container cable_car subway aircraft wheelchair scooter drone" speed="8.28" length="10.71" shape="630.34,840.61 632.50,839.53 634.89,839.28 637.52,839.85 640.39,841.25"/>
    </edge>
    <edge id=":10980051591_w0" function="walkingarea">
        <lane id=":10980051591_w0_0" index="0" allow="pedestrian" speed="2.78" length="14.03" width="3.20" shape="639.56,842.62 644.55,834.42 643.32,833.16 642.99,832.31 642.85,831.32 642.90,830.19 643.13,828.92 637.45,825.20 636.56,828.02 635.35,830.46 633.83,832.53 631.99,834.23 629.84,835.57 627.37,836.53 631.28,841.91 633.63,840.94 634.96,840.90 636.39,841.17 637.92,841.75"/>
    </edge>
    <edge id=":11006993205_0" function="internal">
        <lane id=":11006993205_0_0" index="0" disallow="pedestrian tram rail_urban rail rail_electric rail_fast ship container cable_car subway aircraft wheelchair scooter drone" speed="13.89" length="9.39" shape="1845.77,1778.37 1848.78,1787.26"/>
    </edge>
    <edge id=":11006993205_1" function="internal">
        <lane id=":11006993205_1_0" index="0" disallow="pedestrian tram rail_urban rail rail_electric rail_fast ship container cable_car subway aircraft wheelchair scooter drone" speed="6.14" length="7.78" shape="1845.77,1778.37 1846.45,1781.04 1846.53,1783.09 1845.99,1784.54 1844.83,1785.38"/>
    </edge>
    <edge id=":11006993205_2" function="internal">
        <lane id=":11006993205_2_0" index="0" disallow="pedestrian tram rail_urban rail rail_electric rail_fast ship container cable_car subway aircraft wheelchair scooter drone" speed="6.06" length="7.81" shape="1843.73,1782.37 1845.17,1782.27 1846.49,1783.05 1847.70,1784.71 1848.78,1787.26"/>
    </edge>
    <edge id=":11006993205_3" function="internal">
        <lane id=":11006993205_3_0" index="0" disallow="tram rail_urban rail rail_electric rail_fast ship container cable_car subway aircraft wheelchair scooter drone" speed="2.78" length="4.67" shape="1843.73,1782.37 1845.13,1782.71 1845.78,1783.32 1845.68,1784.21 1844.83,1785.38"/>
    </edge>
    <edge id=":11006993205_c0" function="crossing" crossingEdges="316536547#1">
        <lane id=":11006993205_c0_0" index="0" allow="pedestrian" speed="2.78" length="3.20" width="4.00" shape="1844.89,1780.78 1847.92,1779.76" outlineShape="1844.25,1778.88 1847.28,1777.86 1848.56,1781.65 1845.52,1782.67"/>
    </edge>
    <edge id=":11006993205_w0" function="walkingarea">
        <lane id=":11006993205_w0_0" index="0" allow="pedestrian" speed="2.78" length="6.35" width="4.00" shape="1850.30,1786.75 1852.19,1786.10 1849.18,1777.23 1847.28,1777.86 1848.56,1781.65"/>
    </edge>
    <edge id=":11006993205_w1" function="walkingarea">
        <lane id=":11006993205_w1_0" index="0" allow="pedestrian" speed="2.78" length="3.25" width="4.00" shape="1845.52,1782.67 1844.25,1778.88 1843.18,1780.87 1844.28,1783.87 1845.38,1786.88"/>
    </edge>
    <edge id=":11006993207_0" function="internal">
        <lane id=":11006993207_0_0" index="0" disallow="tram rail_urban rail rail_electric rail_fast ship container cable_car subway aircraft wheelchair scooter drone" speed="2.78" length="4.67" shape="1794.83,1803.74 1793.43,1803.41 1792.77,1802.80 1792.87,1801.91 1793.71,1800.74"/>
    </edge>
    <edge id=":11011660280_0" function="internal">
        <lane id=":11011660280_0_0" index="0" disallow="tram rail_urban rail rail_electric rail_fast ship container cable_car subway aircraft wheelchair scooter drone" speed="27.78" length="0.60" shape="978.84,1012.62 978.80,1012.58 978.76,1012.56 978.73,1012.53 978.68,1012.50"/>
        <lane id=":11011660280_0_1" index="1" disallow="tram rail_urban rail rail_electric rail_fast ship container cable_car subway aircraft wheelchair scooter drone" speed="27.78" length="0.60" shape="980.83,1010.11 980.69,1010.00 980.59,1009.92 980.48,1009.86 980.33,1009.76"/>
        <lane id=":11011660280_0_2" index="2" disallow="tram rail_urban rail rail_electric rail_fast ship container cable_car subway aircraft wheelchair scooter drone" speed="27.78" length="0.60" shape="982.81,1007.60 982.58,1007.41 982.41,1007.29 982.24,1007.18 981.99,1007.02"/>
    </edge>
    <edge id=":11011660280_w0" function="walkingarea">
        <lane id=":11011660280_w0_0" index="0" allow="pedestrian" speed="2.78" length="0.20" width="3.20" shape="977.85,1013.87 983.80,1006.34 983.45,1006.07 983.32,1005.97 983.19,1005.89 983.03,1005.79 982.81,1005.65 977.85,1013.87"/>
    </edge>
    <edge id=":11286303319_0" function="internal">
        <lane id=":11286303319_0_0" index="0" disallow="tram rail_urban rail rail_electric rail_fast ship container cable_car subway aircraft wheelchair scooter drone" speed="22.22" length="0.10" shape="725.33,1753.97 725.33,1753.97"/>
    </edge>
    <edge id=":11286303320_0" function="internal">
        <lane id=":11286303320_0_0" index="0" disallow="tram rail_urban rail rail_electric rail_fast ship container cable_car subway aircraft wheelchair scooter drone" speed="27.78" length="0.10" shape="670.79,1763.89 670.79,1763.89"/>
    </edge>
    <edge id=":11286303321_0" function="internal">
        <lane id=":11286303321_0_0" index="0" disallow="tram rail_urban rail rail_electric rail_fast ship container cable_car subway aircraft wheelchair scooter drone" speed="27.78" length="0.26" shape="679.79,1736.28 679.84,1736.46"/>
        <lane id=":11286303321_0_1" index="1" disallow="tram rail_urban rail rail_electric rail_fast ship container cable_car subway aircraft wheelchair scooter drone" speed="27.78" length="0.26" shape="676.69,1737.09 676.78,1737.40"/>
    </edge>
    <edge id=":11286303321_w0" function="walkingarea">
        <lane id=":11286303321_w0_0" index="0" allow="pedestrian" speed="2.78" length="0.19" width="3.20" shape="675.25,1737.87 681.37,1735.99 681.34,1735.88 675.14,1737.49"/>
    </edge>
    <edge id=":11286303328_0" function="internal">
        <lane id=":11286303328_0_0" index="0" disallow="tram rail_urban rail rail_electric rail_fast ship container cable_car subway aircraft wheelchair scooter drone" speed="22.22" length="0.27" shape="738.78,1818.02 738.67,1817.85"/>
        <lane id=":11286303328_0_1" index="1" disallow="tram rail_urban rail rail_electric rail_fast ship container cable_car subway aircraft wheelchair scooter drone" speed="22.22" length="0.27" shape="741.49,1816.33 741.34,1816.10"/>
        <lane id=":11286303328_0_2" index="2" disallow="tram rail_urban rail rail_electric rail_fast ship container cable_car subway aircraft wheelchair scooter drone" speed="22.22" length="0.27" shape="744.21,1814.64 744.02,1814.34"/>
    </edge>
    <edge id=":11286303328_w0" function="walkingarea">
        <lane id=":11286303328_w0_0" index="0" allow="pedestrian" speed="2.78" length="0.20" width="3.20" shape="737.42,1818.86 745.57,1813.79 745.36,1813.47 737.33,1818.72"/>
    </edge>
    <edge id=":11342900898_0" function="internal">
        <lane id=":11342900898_0_0" index="0" disallow="tram rail_urban rail rail_electric rail_fast ship container cable_car subway aircraft wheelchair scooter drone" speed="27.78" length="0.28" shape="1951.41,919.06 1951.07,919.07"/>